* NGSPICE file created from two_stage_op_amp.ext - technology: sky130A

.subckt two_stage_op_amp IBIAS EN VOUT VN VP VDD VSS
X0 VDD.t31 a_2479_7336.t18 VOUT.t0 VDD.t0 sky130_fd_pr__pfet_01v8 ad=0.145 pd=1.29 as=0.145 ps=1.29 w=1 l=0.4
X1 VSS.t172 VSS.t171 VSS.t172 VSS.t0 sky130_fd_pr__nfet_01v8_lvt ad=1.015 pd=7.29 as=0 ps=0 w=7 l=1
X2 VSS.t170 VSS.t169 VSS.t170 VSS.t42 sky130_fd_pr__nfet_01v8_lvt ad=0.435 pd=3.29 as=0 ps=0 w=3 l=1
X3 VDD.t30 a_2479_7336.t19 VOUT.t14 VDD.t27 sky130_fd_pr__pfet_01v8 ad=0.145 pd=1.29 as=0.145 ps=1.29 w=1 l=0.4
X4 VDD.t76 VDD.t75 VDD.t76 VDD.t12 sky130_fd_pr__pfet_01v8 ad=0.145 pd=1.29 as=0 ps=0 w=1 l=0.4
X5 VSS.t168 VSS.t167 a_4920_2896.t25 VSS.t84 sky130_fd_pr__nfet_01v8_lvt ad=0.435 pd=3.29 as=0.435 ps=3.29 w=3 l=1
X6 VSS.t160 VSS.t159 a_4920_2896.t24 VSS.t81 sky130_fd_pr__nfet_01v8_lvt ad=0.435 pd=3.29 as=0.435 ps=3.29 w=3 l=1
X7 a_2479_7336.t11 a_2479_7336.t10 a_2479_7336.t11 VSS.t9 sky130_fd_pr__nfet_01v8_lvt ad=1.015 pd=7.29 as=0 ps=0 w=7 l=1
X8 VSS.t166 VSS.t165 VSS.t166 VSS.t7 sky130_fd_pr__nfet_01v8_lvt ad=1.015 pd=7.29 as=0 ps=0 w=7 l=1
X9 VDD.t74 VDD.t73 VDD.t74 VDD.t15 sky130_fd_pr__pfet_01v8 ad=0.145 pd=1.29 as=0 ps=0 w=1 l=0.4
X10 VDD.t29 a_2479_7336.t20 VOUT.t2 VDD.t25 sky130_fd_pr__pfet_01v8 ad=0.145 pd=1.29 as=0.145 ps=1.29 w=1 l=0.4
X11 VDD.t28 a_2479_7336.t21 VOUT.t13 VDD.t27 sky130_fd_pr__pfet_01v8 ad=0.145 pd=1.29 as=0.145 ps=1.29 w=1 l=0.4
X12 a_4920_2896.t23 VSS.t163 VSS.t164 VSS.t78 sky130_fd_pr__nfet_01v8_lvt ad=0.435 pd=3.29 as=0.435 ps=3.29 w=3 l=1
X13 a_2479_7336.t9 a_2479_7336.t7 a_2479_7336.t8 VSS.t8 sky130_fd_pr__nfet_01v8_lvt ad=2.03 pd=14.58 as=0 ps=0 w=7 l=1
X14 a_2479_7336.t3 VP.t0 a_2995_7336.t8 VSS.t1 sky130_fd_pr__nfet_01v8_lvt ad=1.015 pd=7.29 as=1.015 ps=7.29 w=7 l=1
X15 VSS.t162 VSS.t161 a_4920_2896.t22 VSS.t75 sky130_fd_pr__nfet_01v8_lvt ad=0.435 pd=3.29 as=0.435 ps=3.29 w=3 l=1
X16 VSS.t158 VSS.t157 VSS.t158 VSS.t72 sky130_fd_pr__nfet_01v8_lvt ad=0.435 pd=3.29 as=0 ps=0 w=3 l=1
X17 a_2995_7336.t14 VN.t0 a_2479_9004.t20 VSS.t2 sky130_fd_pr__nfet_01v8_lvt ad=1.015 pd=7.29 as=1.015 ps=7.29 w=7 l=1
X18 VDD.t26 a_2479_7336.t22 VOUT.t9 VDD.t25 sky130_fd_pr__pfet_01v8 ad=0.145 pd=1.29 as=0.145 ps=1.29 w=1 l=0.4
X19 a_2479_9004.t19 VN.t1 a_2995_7336.t19 VSS.t0 sky130_fd_pr__nfet_01v8_lvt ad=1.015 pd=7.29 as=1.015 ps=7.29 w=7 l=1
X20 VSS.t156 VSS.t155 VSS.t156 VSS.t66 sky130_fd_pr__nfet_01v8_lvt ad=0.435 pd=3.29 as=0 ps=0 w=3 l=1
X21 a_2479_9004.t4 a_2479_9004.t3 a_2479_9004.t4 VSS.t9 sky130_fd_pr__nfet_01v8_lvt ad=1.015 pd=7.29 as=0 ps=0 w=7 l=1
X22 VSS.t154 VSS.t153 VSS.t154 VSS.t69 sky130_fd_pr__nfet_01v8_lvt ad=0.435 pd=3.29 as=0 ps=0 w=3 l=1
X23 a_4920_2896.t21 VSS.t151 VSS.t152 VSS.t63 sky130_fd_pr__nfet_01v8_lvt ad=0.435 pd=3.29 as=0.435 ps=3.29 w=3 l=1
X24 a_2479_9004.t2 a_2479_9004.t0 a_2479_9004.t1 VSS.t8 sky130_fd_pr__nfet_01v8_lvt ad=2.03 pd=14.58 as=0 ps=0 w=7 l=1
X25 a_2479_9004.t18 VN.t2 a_2995_7336.t15 VSS.t1 sky130_fd_pr__nfet_01v8_lvt ad=1.015 pd=7.29 as=1.015 ps=7.29 w=7 l=1
X26 VSS.t150 VSS.t149 a_4920_2896.t20 VSS.t57 sky130_fd_pr__nfet_01v8_lvt ad=0.435 pd=3.29 as=0.435 ps=3.29 w=3 l=1
X27 VOUT.t15 a_2479_7336.t23 VDD.t24 VDD.t5 sky130_fd_pr__pfet_01v8 ad=0.145 pd=1.29 as=0.145 ps=1.29 w=1 l=0.4
X28 VSS.t148 VSS.t147 VSS.t148 VSS.t0 sky130_fd_pr__nfet_01v8_lvt ad=1.015 pd=7.29 as=0 ps=0 w=7 l=1
X29 VDD.t72 VDD.t71 VDD.t72 VDD.t12 sky130_fd_pr__pfet_01v8 ad=0.145 pd=1.29 as=0 ps=0 w=1 l=0.4
X30 a_2995_7336.t7 VP.t1 a_2479_7336.t4 VSS.t2 sky130_fd_pr__nfet_01v8_lvt ad=1.015 pd=7.29 as=1.015 ps=7.29 w=7 l=1
X31 VSS.t146 VSS.t145 VSS.t146 VSS.t5 sky130_fd_pr__nfet_01v8_lvt ad=1.015 pd=7.29 as=0 ps=0 w=7 l=1
X32 a_3758_2896.t13 VSS.t143 VSS.t144 VSS.t84 sky130_fd_pr__nfet_01v8_lvt ad=0.435 pd=3.29 as=0.435 ps=3.29 w=3 l=1
X33 a_4920_2896.t19 VSS.t117 VSS.t118 VSS.t54 sky130_fd_pr__nfet_01v8_lvt ad=0.435 pd=3.29 as=0.435 ps=3.29 w=3 l=1
X34 a_2479_7336.t2 VP.t2 a_2995_7336.t6 VSS.t0 sky130_fd_pr__nfet_01v8_lvt ad=1.015 pd=7.29 as=1.015 ps=7.29 w=7 l=1
X35 a_3758_2896.t12 VSS.t133 VSS.t134 VSS.t81 sky130_fd_pr__nfet_01v8_lvt ad=0.435 pd=3.29 as=0.435 ps=3.29 w=3 l=1
X36 VOUT.t4 a_2479_7336.t24 VDD.t23 VDD.t5 sky130_fd_pr__pfet_01v8 ad=0.145 pd=1.29 as=0.145 ps=1.29 w=1 l=0.4
X37 VSS.t142 VSS.t141 a_3758_2896.t11 VSS.t78 sky130_fd_pr__nfet_01v8_lvt ad=0.435 pd=3.29 as=0.435 ps=3.29 w=3 l=1
X38 a_4920_2896.t1 a_4920_2896.t0 a_4920_2896.t1 VSS.t3 sky130_fd_pr__nfet_01v8_lvt ad=1.015 pd=7.29 as=0 ps=0 w=7 l=1
X39 a_4920_2896.t18 VSS.t139 VSS.t140 VSS.t39 sky130_fd_pr__nfet_01v8_lvt ad=0.435 pd=3.29 as=0.435 ps=3.29 w=3 l=1
X40 a_3758_2896.t10 VSS.t137 VSS.t138 VSS.t75 sky130_fd_pr__nfet_01v8_lvt ad=0.435 pd=3.29 as=0.435 ps=3.29 w=3 l=1
X41 a_3758_2896.t9 VSS.t135 VSS.t136 VSS.t72 sky130_fd_pr__nfet_01v8_lvt ad=0.435 pd=3.29 as=0.435 ps=3.29 w=3 l=1
X42 a_4920_2896.t26 EN.t0 VOUT.t33 VSS.t177 sky130_fd_pr__nfet_01v8_lvt ad=1.015 pd=7.29 as=1.015 ps=7.29 w=7 l=1
X43 a_2995_7336.t5 VP.t3 a_2479_7336.t6 VSS.t5 sky130_fd_pr__nfet_01v8_lvt ad=1.015 pd=7.29 as=1.015 ps=7.29 w=7 l=1
X44 VDD.t34 a_2479_9004.t11 a_2479_9004.t12 VDD.t2 sky130_fd_pr__pfet_01v8 ad=0.145 pd=1.29 as=0.145 ps=1.29 w=1 l=0.4
X45 VOUT.t31 VOUT.t29 VOUT.t30 VSS.t173 sky130_fd_pr__nfet_01v8_lvt ad=2.03 pd=14.58 as=0 ps=0 w=7 l=1
X46 a_4920_2896.t17 VSS.t131 VSS.t132 VSS.t13 sky130_fd_pr__nfet_01v8_lvt ad=0.435 pd=3.29 as=0.435 ps=3.29 w=3 l=1
X47 VDD.t70 VDD.t69 VDD.t70 VDD.t32 sky130_fd_pr__pfet_01v8 ad=0.145 pd=1.29 as=0 ps=0 w=1 l=0.4
X48 VSS.t17 VSS.t15 a_4920_2896.t16 VSS.t16 sky130_fd_pr__nfet_01v8_lvt ad=0.435 pd=3.29 as=0.435 ps=3.29 w=3 l=1
X49 VDD.t68 VDD.t67 VDD.t68 VDD.t8 sky130_fd_pr__pfet_01v8 ad=0.145 pd=1.29 as=0 ps=0 w=1 l=0.4
X50 VSS.t130 VSS.t129 VSS.t130 VSS.t111 sky130_fd_pr__nfet_01v8_lvt ad=1.015 pd=7.29 as=0 ps=0 w=7 l=1
X51 VDD.t22 a_2479_7336.t25 VOUT.t10 VDD.t21 sky130_fd_pr__pfet_01v8 ad=0.145 pd=1.29 as=0.145 ps=1.29 w=1 l=0.4
X52 VSS.t128 VSS.t126 VSS.t127 VSS.t31 sky130_fd_pr__nfet_01v8_lvt ad=0.87 pd=6.58 as=0 ps=0 w=3 l=1
X53 VSS.t116 VSS.t115 VSS.t116 VSS.t5 sky130_fd_pr__nfet_01v8_lvt ad=1.015 pd=7.29 as=0 ps=0 w=7 l=1
X54 VOUT.t28 VOUT.t26 VOUT.t27 VDD.t33 sky130_fd_pr__pfet_01v8 ad=0.29 pd=2.58 as=0 ps=0 w=1 l=0.4
X55 VSS.t125 VSS.t124 a_4920_2896.t15 VSS.t26 sky130_fd_pr__nfet_01v8_lvt ad=0.435 pd=3.29 as=0.435 ps=3.29 w=3 l=1
X56 VOUT.t25 VOUT.t24 VOUT.t25 VDD.t21 sky130_fd_pr__pfet_01v8 ad=0.145 pd=1.29 as=0 ps=0 w=1 l=0.4
X57 a_2995_7336.t17 VN.t3 a_2479_9004.t17 VSS.t5 sky130_fd_pr__nfet_01v8_lvt ad=1.015 pd=7.29 as=1.015 ps=7.29 w=7 l=1
X58 VDD.t20 a_2479_7336.t26 VOUT.t7 VDD.t18 sky130_fd_pr__pfet_01v8 ad=0.145 pd=1.29 as=0.145 ps=1.29 w=1 l=0.4
X59 VSS.t123 VSS.t121 VSS.t122 VSS.t8 sky130_fd_pr__nfet_01v8_lvt ad=2.03 pd=14.58 as=0 ps=0 w=7 l=1
X60 VDD.t66 VDD.t64 VDD.t65 VDD.t33 sky130_fd_pr__pfet_01v8 ad=0.29 pd=2.58 as=0 ps=0 w=1 l=0.4
X61 a_2479_9004.t10 a_2479_9004.t9 VDD.t4 VDD.t0 sky130_fd_pr__pfet_01v8 ad=0.145 pd=1.29 as=0.145 ps=1.29 w=1 l=0.4
X62 VOUT.t18 VOUT.t19 sky130_fd_pr__cap_mim_m3_1 l=25.5 w=25.5
X63 VDD.t19 a_2479_7336.t27 VOUT.t17 VDD.t18 sky130_fd_pr__pfet_01v8 ad=0.145 pd=1.29 as=0.145 ps=1.29 w=1 l=0.4
X64 VSS.t120 VSS.t119 a_3758_2896.t8 VSS.t39 sky130_fd_pr__nfet_01v8_lvt ad=0.435 pd=3.29 as=0.435 ps=3.29 w=3 l=1
X65 a_4920_2896.t14 VSS.t113 VSS.t114 VSS.t42 sky130_fd_pr__nfet_01v8_lvt ad=0.435 pd=3.29 as=0.435 ps=3.29 w=3 l=1
X66 VSS.t112 VSS.t110 VSS.t112 VSS.t111 sky130_fd_pr__nfet_01v8_lvt ad=1.015 pd=7.29 as=0 ps=0 w=7 l=1
X67 VOUT.t16 a_2479_7336.t28 VDD.t17 VDD.t15 sky130_fd_pr__pfet_01v8 ad=0.145 pd=1.29 as=0.145 ps=1.29 w=1 l=0.4
X68 VDD.t3 a_2479_9004.t21 a_2479_7336.t1 VDD.t2 sky130_fd_pr__pfet_01v8 ad=0.145 pd=1.29 as=0.145 ps=1.29 w=1 l=0.4
X69 VDD.t63 VDD.t62 VDD.t63 VDD.t27 sky130_fd_pr__pfet_01v8 ad=0.145 pd=1.29 as=0 ps=0 w=1 l=0.4
X70 VSS.t109 VSS.t108 VSS.t109 VSS.t7 sky130_fd_pr__nfet_01v8_lvt ad=1.015 pd=7.29 as=0 ps=0 w=7 l=1
X71 VDD.t61 VDD.t60 VDD.t61 VDD.t32 sky130_fd_pr__pfet_01v8 ad=0.145 pd=1.29 as=0 ps=0 w=1 l=0.4
X72 VOUT.t5 a_2479_7336.t29 VDD.t16 VDD.t15 sky130_fd_pr__pfet_01v8 ad=0.145 pd=1.29 as=0.145 ps=1.29 w=1 l=0.4
X73 VSS.t14 VSS.t12 a_3758_2896.t7 VSS.t13 sky130_fd_pr__nfet_01v8_lvt ad=0.435 pd=3.29 as=0.435 ps=3.29 w=3 l=1
X74 VSS.t107 VSS.t106 VSS.t107 VSS.t2 sky130_fd_pr__nfet_01v8_lvt ad=1.015 pd=7.29 as=0 ps=0 w=7 l=1
X75 VDD.t59 VDD.t58 VDD.t59 VDD.t25 sky130_fd_pr__pfet_01v8 ad=0.145 pd=1.29 as=0 ps=0 w=1 l=0.4
X76 VSS.t48 VSS.t47 VSS.t48 VSS.t45 sky130_fd_pr__nfet_01v8_lvt ad=1.015 pd=7.29 as=0 ps=0 w=7 l=1
X77 VDD.t57 VDD.t56 VDD.t57 VDD.t8 sky130_fd_pr__pfet_01v8 ad=0.145 pd=1.29 as=0 ps=0 w=1 l=0.4
X78 a_3758_2896.t6 VSS.t104 VSS.t105 VSS.t16 sky130_fd_pr__nfet_01v8_lvt ad=0.435 pd=3.29 as=0.435 ps=3.29 w=3 l=1
X79 VSS.t103 VSS.t102 VSS.t103 VSS.t4 sky130_fd_pr__nfet_01v8_lvt ad=1.015 pd=7.29 as=0 ps=0 w=7 l=1
X80 VSS.t101 VSS.t100 VSS.t101 VSS.t4 sky130_fd_pr__nfet_01v8_lvt ad=1.015 pd=7.29 as=0 ps=0 w=7 l=1
X81 VSS.t99 VSS.t98 VSS.t99 VSS.t66 sky130_fd_pr__nfet_01v8_lvt ad=0.435 pd=3.29 as=0 ps=0 w=3 l=1
X82 a_2995_7336.t4 VP.t4 a_2479_7336.t15 VSS.t111 sky130_fd_pr__nfet_01v8_lvt ad=1.015 pd=7.29 as=1.015 ps=7.29 w=7 l=1
X83 VSS.t97 VSS.t96 VSS.t97 VSS.t69 sky130_fd_pr__nfet_01v8_lvt ad=0.435 pd=3.29 as=0 ps=0 w=3 l=1
X84 a_4920_2896.t13 VSS.t94 VSS.t95 VSS.t63 sky130_fd_pr__nfet_01v8_lvt ad=0.435 pd=3.29 as=0.435 ps=3.29 w=3 l=1
X85 a_2479_7336.t12 VP.t5 a_2995_7336.t3 VSS.t7 sky130_fd_pr__nfet_01v8_lvt ad=1.015 pd=7.29 as=1.015 ps=7.29 w=7 l=1
X86 VSS.t93 VSS.t90 VSS.t92 VSS.t91 sky130_fd_pr__nfet_01v8_lvt ad=2.03 pd=14.58 as=0 ps=0 w=7 l=1
X87 a_2479_7336.t0 a_2479_9004.t22 VDD.t1 VDD.t0 sky130_fd_pr__pfet_01v8 ad=0.145 pd=1.29 as=0.145 ps=1.29 w=1 l=0.4
X88 VSS.t89 VSS.t88 a_4920_2896.t12 VSS.t57 sky130_fd_pr__nfet_01v8_lvt ad=0.435 pd=3.29 as=0.435 ps=3.29 w=3 l=1
X89 a_2995_7336.t18 VN.t4 a_2479_9004.t16 VSS.t45 sky130_fd_pr__nfet_01v8_lvt ad=1.015 pd=7.29 as=1.015 ps=7.29 w=7 l=1
X90 VOUT.t11 a_2479_7336.t30 VDD.t14 VDD.t12 sky130_fd_pr__pfet_01v8 ad=0.145 pd=1.29 as=0.145 ps=1.29 w=1 l=0.4
X91 a_4920_2896.t11 VSS.t86 VSS.t87 VSS.t54 sky130_fd_pr__nfet_01v8_lvt ad=0.435 pd=3.29 as=0.435 ps=3.29 w=3 l=1
X92 a_2479_9004.t15 VN.t5 a_2995_7336.t13 VSS.t4 sky130_fd_pr__nfet_01v8_lvt ad=1.015 pd=7.29 as=1.015 ps=7.29 w=7 l=1
X93 VDD.t37 a_2479_9004.t23 a_2479_7336.t17 VDD.t5 sky130_fd_pr__pfet_01v8 ad=0.145 pd=1.29 as=0.145 ps=1.29 w=1 l=0.4
X94 VDD.t55 VDD.t54 VDD.t55 VDD.t27 sky130_fd_pr__pfet_01v8 ad=0.145 pd=1.29 as=0 ps=0 w=1 l=0.4
X95 VSS.t85 VSS.t83 a_4920_2896.t10 VSS.t84 sky130_fd_pr__nfet_01v8_lvt ad=0.435 pd=3.29 as=0.435 ps=3.29 w=3 l=1
X96 VOUT.t8 a_2479_7336.t31 VDD.t13 VDD.t12 sky130_fd_pr__pfet_01v8 ad=0.145 pd=1.29 as=0.145 ps=1.29 w=1 l=0.4
X97 VSS.t82 VSS.t80 a_4920_2896.t9 VSS.t81 sky130_fd_pr__nfet_01v8_lvt ad=0.435 pd=3.29 as=0.435 ps=3.29 w=3 l=1
X98 a_2995_7336.t12 VN.t6 a_2479_9004.t14 VSS.t111 sky130_fd_pr__nfet_01v8_lvt ad=1.015 pd=7.29 as=1.015 ps=7.29 w=7 l=1
X99 VDD.t53 VDD.t52 VDD.t53 VDD.t25 sky130_fd_pr__pfet_01v8 ad=0.145 pd=1.29 as=0 ps=0 w=1 l=0.4
X100 a_4920_2896.t8 VSS.t77 VSS.t79 VSS.t78 sky130_fd_pr__nfet_01v8_lvt ad=0.435 pd=3.29 as=0.435 ps=3.29 w=3 l=1
X101 a_2479_9004.t13 VN.t7 a_2995_7336.t0 VSS.t7 sky130_fd_pr__nfet_01v8_lvt ad=1.015 pd=7.29 as=1.015 ps=7.29 w=7 l=1
X102 VSS.t76 VSS.t74 a_4920_2896.t7 VSS.t75 sky130_fd_pr__nfet_01v8_lvt ad=0.435 pd=3.29 as=0.435 ps=3.29 w=3 l=1
X103 VSS.t73 VSS.t71 VSS.t73 VSS.t72 sky130_fd_pr__nfet_01v8_lvt ad=0.435 pd=3.29 as=0 ps=0 w=3 l=1
X104 a_2995_7336.t2 VP.t6 a_2479_7336.t13 VSS.t45 sky130_fd_pr__nfet_01v8_lvt ad=1.015 pd=7.29 as=1.015 ps=7.29 w=7 l=1
X105 a_2479_7336.t5 VP.t7 a_2995_7336.t1 VSS.t4 sky130_fd_pr__nfet_01v8_lvt ad=1.015 pd=7.29 as=1.015 ps=7.29 w=7 l=1
X106 VSS.t67 VSS.t65 VSS.t67 VSS.t66 sky130_fd_pr__nfet_01v8_lvt ad=0.435 pd=3.29 as=0 ps=0 w=3 l=1
X107 VSS.t70 VSS.t68 a_3758_2896.t5 VSS.t69 sky130_fd_pr__nfet_01v8_lvt ad=0.435 pd=3.29 as=0.435 ps=3.29 w=3 l=1
X108 VSS.t64 VSS.t62 a_3758_2896.t4 VSS.t63 sky130_fd_pr__nfet_01v8_lvt ad=0.435 pd=3.29 as=0.435 ps=3.29 w=3 l=1
X109 VSS.t61 VSS.t59 VSS.t60 VSS.t31 sky130_fd_pr__nfet_01v8_lvt ad=0.87 pd=6.58 as=0 ps=0 w=3 l=1
X110 a_3758_2896.t3 VSS.t56 VSS.t58 VSS.t57 sky130_fd_pr__nfet_01v8_lvt ad=0.435 pd=3.29 as=0.435 ps=3.29 w=3 l=1
X111 VDD.t6 a_2479_9004.t7 a_2479_9004.t8 VDD.t5 sky130_fd_pr__pfet_01v8 ad=0.145 pd=1.29 as=0.145 ps=1.29 w=1 l=0.4
X112 VSS.t55 VSS.t53 a_3758_2896.t2 VSS.t54 sky130_fd_pr__nfet_01v8_lvt ad=0.435 pd=3.29 as=0.435 ps=3.29 w=3 l=1
X113 IBIAS.t2 IBIAS.t1 IBIAS.t2 VSS.t176 sky130_fd_pr__nfet_01v8_lvt ad=1.015 pd=7.29 as=0 ps=0 w=7 l=1
X114 VSS.t52 VSS.t51 VSS.t52 VSS.t1 sky130_fd_pr__nfet_01v8_lvt ad=1.015 pd=7.29 as=0 ps=0 w=7 l=1
X115 VDD.t51 VDD.t50 VDD.t51 VDD.t21 sky130_fd_pr__pfet_01v8 ad=0.145 pd=1.29 as=0 ps=0 w=1 l=0.4
X116 VSS.t50 VSS.t49 a_4920_2896.t6 VSS.t26 sky130_fd_pr__nfet_01v8_lvt ad=0.435 pd=3.29 as=0.435 ps=3.29 w=3 l=1
X117 VDD.t49 VDD.t47 VDD.t48 VDD.t33 sky130_fd_pr__pfet_01v8 ad=0.29 pd=2.58 as=0 ps=0 w=1 l=0.4
X118 IBIAS.t0 EN.t1 VSS.t180 VSS.t179 sky130_fd_pr__nfet_01v8_lvt ad=1.015 pd=7.29 as=1.015 ps=7.29 w=7 l=1
X119 VSS.t46 VSS.t44 VSS.t46 VSS.t45 sky130_fd_pr__nfet_01v8_lvt ad=1.015 pd=7.29 as=0 ps=0 w=7 l=1
X120 a_2479_7336.t16 a_2479_9004.t24 VDD.t35 VDD.t18 sky130_fd_pr__pfet_01v8 ad=0.145 pd=1.29 as=0.145 ps=1.29 w=1 l=0.4
X121 a_4920_2896.t5 VSS.t41 VSS.t43 VSS.t42 sky130_fd_pr__nfet_01v8_lvt ad=0.435 pd=3.29 as=0.435 ps=3.29 w=3 l=1
X122 a_4920_2896.t4 VSS.t38 VSS.t40 VSS.t39 sky130_fd_pr__nfet_01v8_lvt ad=0.435 pd=3.29 as=0.435 ps=3.29 w=3 l=1
X123 VOUT.t12 a_2479_7336.t32 VDD.t11 VDD.t2 sky130_fd_pr__pfet_01v8 ad=0.145 pd=1.29 as=0.145 ps=1.29 w=1 l=0.4
X124 VDD.t46 VDD.t45 VDD.t46 VDD.t32 sky130_fd_pr__pfet_01v8 ad=0.145 pd=1.29 as=0 ps=0 w=1 l=0.4
X125 VDD.t44 VDD.t43 VDD.t44 VDD.t15 sky130_fd_pr__pfet_01v8 ad=0.145 pd=1.29 as=0 ps=0 w=1 l=0.4
X126 a_3758_2896.t1 a_3758_2896.t0 a_3758_2896.t1 VSS.t174 sky130_fd_pr__nfet_01v8_lvt ad=1.015 pd=7.29 as=0 ps=0 w=7 l=1
X127 VOUT.t6 a_2479_7336.t33 VDD.t10 VDD.t2 sky130_fd_pr__pfet_01v8 ad=0.145 pd=1.29 as=0.145 ps=1.29 w=1 l=0.4
X128 VOUT.t23 VOUT.t22 VOUT.t23 VDD.t8 sky130_fd_pr__pfet_01v8 ad=0.145 pd=1.29 as=0 ps=0 w=1 l=0.4
X129 a_4920_2896.t3 VSS.t36 VSS.t37 VSS.t13 sky130_fd_pr__nfet_01v8_lvt ad=0.435 pd=3.29 as=0.435 ps=3.29 w=3 l=1
X130 a_3758_2896.t14 EN.t2 a_2995_7336.t16 VSS.t178 sky130_fd_pr__nfet_01v8_lvt ad=1.015 pd=7.29 as=1.015 ps=7.29 w=7 l=1
X131 VSS.t35 VSS.t34 a_4920_2896.t2 VSS.t16 sky130_fd_pr__nfet_01v8_lvt ad=0.435 pd=3.29 as=0.435 ps=3.29 w=3 l=1
X132 VOUT.t21 VOUT.t20 VOUT.t21 VDD.t32 sky130_fd_pr__pfet_01v8 ad=0.145 pd=1.29 as=0 ps=0 w=1 l=0.4
X133 VOUT.t1 a_2479_7336.t34 VDD.t9 VDD.t8 sky130_fd_pr__pfet_01v8 ad=0.145 pd=1.29 as=0.145 ps=1.29 w=1 l=0.4
X134 VSS.t33 VSS.t30 VSS.t32 VSS.t31 sky130_fd_pr__nfet_01v8_lvt ad=0.87 pd=6.58 as=0 ps=0 w=3 l=1
X135 a_2995_7336.t11 a_2995_7336.t9 a_2995_7336.t10 VSS.t6 sky130_fd_pr__nfet_01v8_lvt ad=2.03 pd=14.58 as=0 ps=0 w=7 l=1
X136 VDD.t42 VDD.t41 VDD.t42 VDD.t21 sky130_fd_pr__pfet_01v8 ad=0.145 pd=1.29 as=0 ps=0 w=1 l=0.4
X137 VSS.t29 VSS.t28 VSS.t29 VSS.t9 sky130_fd_pr__nfet_01v8_lvt ad=1.015 pd=7.29 as=0 ps=0 w=7 l=1
X138 VDD.t40 VDD.t38 VDD.t39 VDD.t33 sky130_fd_pr__pfet_01v8 ad=0.29 pd=2.58 as=0 ps=0 w=1 l=0.4
X139 a_2479_7336.t14 VOUT.t32 VSS.t175 sky130_fd_pr__res_xhigh_po_1p41 l=14
X140 VSS.t27 VSS.t25 VSS.t27 VSS.t26 sky130_fd_pr__nfet_01v8_lvt ad=0.435 pd=3.29 as=0 ps=0 w=3 l=1
X141 VSS.t24 VSS.t22 VSS.t23 VSS.t8 sky130_fd_pr__nfet_01v8_lvt ad=2.03 pd=14.58 as=0 ps=0 w=7 l=1
X142 VSS.t21 VSS.t20 VSS.t21 VSS.t1 sky130_fd_pr__nfet_01v8_lvt ad=1.015 pd=7.29 as=0 ps=0 w=7 l=1
X143 VDD.t7 a_2479_7336.t35 VOUT.t3 VDD.t0 sky130_fd_pr__pfet_01v8 ad=0.145 pd=1.29 as=0.145 ps=1.29 w=1 l=0.4
X144 VSS.t19 VSS.t18 VSS.t19 VSS.t9 sky130_fd_pr__nfet_01v8_lvt ad=1.015 pd=7.29 as=0 ps=0 w=7 l=1
X145 a_2479_9004.t6 a_2479_9004.t5 VDD.t36 VDD.t18 sky130_fd_pr__pfet_01v8 ad=0.145 pd=1.29 as=0.145 ps=1.29 w=1 l=0.4
X146 VSS.t11 VSS.t10 VSS.t11 VSS.t2 sky130_fd_pr__nfet_01v8_lvt ad=1.015 pd=7.29 as=0 ps=0 w=7 l=1
C0 VOUT VN 0.15325f
C1 VOUT VP 0.38099f
C2 VOUT EN 0.69581f
C3 VDD VOUT 9.68294f
C4 VN VP 5.95617f
C5 IBIAS EN 0.80152f
R0 a_2479_7336.n83 a_2479_7336.t19 260.486
R1 a_2479_7336.n66 a_2479_7336.t31 260.486
R2 a_2479_7336.n83 a_2479_7336.t28 260.111
R3 a_2479_7336.n84 a_2479_7336.t35 260.111
R4 a_2479_7336.n82 a_2479_7336.t32 260.111
R5 a_2479_7336.n81 a_2479_7336.t26 260.111
R6 a_2479_7336.n80 a_2479_7336.t23 260.111
R7 a_2479_7336.n79 a_2479_7336.t20 260.111
R8 a_2479_7336.n78 a_2479_7336.t30 260.111
R9 a_2479_7336.n77 a_2479_7336.t25 260.111
R10 a_2479_7336.n74 a_2479_7336.t34 260.111
R11 a_2479_7336.n73 a_2479_7336.t21 260.111
R12 a_2479_7336.n72 a_2479_7336.t29 260.111
R13 a_2479_7336.n71 a_2479_7336.t18 260.111
R14 a_2479_7336.n70 a_2479_7336.t33 260.111
R15 a_2479_7336.n69 a_2479_7336.t27 260.111
R16 a_2479_7336.n67 a_2479_7336.t24 260.111
R17 a_2479_7336.n66 a_2479_7336.t22 260.111
R18 a_2479_7336.n68 a_2479_7336.n65 203.843
R19 a_2479_7336.n86 a_2479_7336.n85 203.841
R20 a_2479_7336.n57 a_2479_7336.n39 185
R21 a_2479_7336.n57 a_2479_7336.n38 185
R22 a_2479_7336.n57 a_2479_7336.n37 185
R23 a_2479_7336.n57 a_2479_7336.n36 185
R24 a_2479_7336.n57 a_2479_7336.n35 185
R25 a_2479_7336.n57 a_2479_7336.n34 185
R26 a_2479_7336.n57 a_2479_7336.n33 185
R27 a_2479_7336.n26 a_2479_7336.n8 185
R28 a_2479_7336.n26 a_2479_7336.n7 185
R29 a_2479_7336.n26 a_2479_7336.n6 185
R30 a_2479_7336.n26 a_2479_7336.n5 185
R31 a_2479_7336.n26 a_2479_7336.n4 185
R32 a_2479_7336.n26 a_2479_7336.n3 185
R33 a_2479_7336.n26 a_2479_7336.n2 185
R34 a_2479_7336.n41 a_2479_7336.t7 130.75
R35 a_2479_7336.n10 a_2479_7336.t10 130.75
R36 a_2479_7336.n41 a_2479_7336.t9 91.3557
R37 a_2479_7336.n10 a_2479_7336.t11 91.3557
R38 a_2479_7336.n58 a_2479_7336.n57 86.5152
R39 a_2479_7336.n27 a_2479_7336.n26 86.5152
R40 a_2479_7336.n56 a_2479_7336.n40 30.3012
R41 a_2479_7336.n25 a_2479_7336.n9 30.3012
R42 a_2479_7336.n65 a_2479_7336.t17 28.5655
R43 a_2479_7336.n65 a_2479_7336.t16 28.5655
R44 a_2479_7336.n86 a_2479_7336.t1 28.5655
R45 a_2479_7336.t0 a_2479_7336.n86 28.5655
R46 a_2479_7336.n33 a_2479_7336.n32 24.8476
R47 a_2479_7336.n2 a_2479_7336.n1 24.8476
R48 a_2479_7336.n42 a_2479_7336.n34 23.3417
R49 a_2479_7336.n11 a_2479_7336.n3 23.3417
R50 a_2479_7336.n59 a_2479_7336.n58 22.0256
R51 a_2479_7336.n28 a_2479_7336.n27 22.0256
R52 a_2479_7336.n44 a_2479_7336.n35 21.8358
R53 a_2479_7336.n13 a_2479_7336.n4 21.8358
R54 a_2479_7336.n46 a_2479_7336.n36 20.3299
R55 a_2479_7336.n15 a_2479_7336.n5 20.3299
R56 a_2479_7336.n48 a_2479_7336.n37 18.824
R57 a_2479_7336.n17 a_2479_7336.n6 18.824
R58 a_2479_7336.n50 a_2479_7336.n38 17.3181
R59 a_2479_7336.n19 a_2479_7336.n7 17.3181
R60 a_2479_7336.n57 a_2479_7336.n56 16.3559
R61 a_2479_7336.n26 a_2479_7336.n25 16.3559
R62 a_2479_7336.n52 a_2479_7336.n39 15.8123
R63 a_2479_7336.n21 a_2479_7336.n8 15.8123
R64 a_2479_7336.n62 a_2479_7336.n61 14.6052
R65 a_2479_7336.n64 a_2479_7336.n63 14.6052
R66 a_2479_7336.n30 a_2479_7336.n29 14.377
R67 a_2479_7336.n58 a_2479_7336.n32 12.7256
R68 a_2479_7336.n27 a_2479_7336.n1 12.7256
R69 a_2479_7336.n62 a_2479_7336.n60 11.5586
R70 a_2479_7336.n40 a_2479_7336.n39 11.2946
R71 a_2479_7336.n9 a_2479_7336.n8 11.2946
R72 a_2479_7336.n52 a_2479_7336.n38 9.78874
R73 a_2479_7336.n21 a_2479_7336.n7 9.78874
R74 a_2479_7336.n32 a_2479_7336.n31 9.3005
R75 a_2479_7336.n43 a_2479_7336.n42 9.3005
R76 a_2479_7336.n45 a_2479_7336.n44 9.3005
R77 a_2479_7336.n47 a_2479_7336.n46 9.3005
R78 a_2479_7336.n49 a_2479_7336.n48 9.3005
R79 a_2479_7336.n51 a_2479_7336.n50 9.3005
R80 a_2479_7336.n53 a_2479_7336.n52 9.3005
R81 a_2479_7336.n54 a_2479_7336.n40 9.3005
R82 a_2479_7336.n1 a_2479_7336.n0 9.3005
R83 a_2479_7336.n12 a_2479_7336.n11 9.3005
R84 a_2479_7336.n14 a_2479_7336.n13 9.3005
R85 a_2479_7336.n16 a_2479_7336.n15 9.3005
R86 a_2479_7336.n18 a_2479_7336.n17 9.3005
R87 a_2479_7336.n20 a_2479_7336.n19 9.3005
R88 a_2479_7336.n22 a_2479_7336.n21 9.3005
R89 a_2479_7336.n23 a_2479_7336.n9 9.3005
R90 a_2479_7336.n50 a_2479_7336.n37 8.28285
R91 a_2479_7336.n19 a_2479_7336.n6 8.28285
R92 a_2479_7336.n75 a_2479_7336.n64 8.22405
R93 a_2479_7336.n48 a_2479_7336.n36 6.77697
R94 a_2479_7336.n17 a_2479_7336.n5 6.77697
R95 a_2479_7336.n30 a_2479_7336.n28 6.19091
R96 a_2479_7336.n46 a_2479_7336.n35 5.27109
R97 a_2479_7336.n15 a_2479_7336.n4 5.27109
R98 a_2479_7336.n76 a_2479_7336.n75 4.66982
R99 a_2479_7336.n44 a_2479_7336.n34 3.76521
R100 a_2479_7336.n13 a_2479_7336.n3 3.76521
R101 a_2479_7336.n60 a_2479_7336.n59 3.31388
R102 a_2479_7336.n76 a_2479_7336.t14 2.8878
R103 a_2479_7336.n64 a_2479_7336.n62 2.87753
R104 a_2479_7336.n61 a_2479_7336.t13 2.48621
R105 a_2479_7336.n61 a_2479_7336.t5 2.48621
R106 a_2479_7336.n63 a_2479_7336.t4 2.48621
R107 a_2479_7336.n63 a_2479_7336.t2 2.48621
R108 a_2479_7336.n57 a_2479_7336.t6 2.48621
R109 a_2479_7336.n57 a_2479_7336.t8 2.48621
R110 a_2479_7336.n26 a_2479_7336.t11 2.48621
R111 a_2479_7336.n26 a_2479_7336.t3 2.48621
R112 a_2479_7336.n29 a_2479_7336.t15 2.48621
R113 a_2479_7336.n29 a_2479_7336.t12 2.48621
R114 a_2479_7336.n56 a_2479_7336.n55 2.36936
R115 a_2479_7336.n25 a_2479_7336.n24 2.36936
R116 a_2479_7336.n60 a_2479_7336.n30 2.30287
R117 a_2479_7336.n42 a_2479_7336.n33 2.25932
R118 a_2479_7336.n11 a_2479_7336.n2 2.25932
R119 a_2479_7336.n77 a_2479_7336.n76 1.41083
R120 a_2479_7336.n75 a_2479_7336.n74 1.3088
R121 a_2479_7336.n67 a_2479_7336.n66 0.3755
R122 a_2479_7336.n70 a_2479_7336.n69 0.3755
R123 a_2479_7336.n71 a_2479_7336.n70 0.3755
R124 a_2479_7336.n72 a_2479_7336.n71 0.3755
R125 a_2479_7336.n73 a_2479_7336.n72 0.3755
R126 a_2479_7336.n74 a_2479_7336.n73 0.3755
R127 a_2479_7336.n78 a_2479_7336.n77 0.3755
R128 a_2479_7336.n79 a_2479_7336.n78 0.3755
R129 a_2479_7336.n80 a_2479_7336.n79 0.3755
R130 a_2479_7336.n81 a_2479_7336.n80 0.3755
R131 a_2479_7336.n82 a_2479_7336.n81 0.3755
R132 a_2479_7336.n84 a_2479_7336.n83 0.3755
R133 a_2479_7336.n55 a_2479_7336.n41 0.320353
R134 a_2479_7336.n24 a_2479_7336.n10 0.320353
R135 a_2479_7336.n55 a_2479_7336.n54 0.196152
R136 a_2479_7336.n54 a_2479_7336.n53 0.196152
R137 a_2479_7336.n53 a_2479_7336.n51 0.196152
R138 a_2479_7336.n51 a_2479_7336.n49 0.196152
R139 a_2479_7336.n49 a_2479_7336.n47 0.196152
R140 a_2479_7336.n47 a_2479_7336.n45 0.196152
R141 a_2479_7336.n45 a_2479_7336.n43 0.196152
R142 a_2479_7336.n43 a_2479_7336.n31 0.196152
R143 a_2479_7336.n59 a_2479_7336.n31 0.196152
R144 a_2479_7336.n24 a_2479_7336.n23 0.196152
R145 a_2479_7336.n23 a_2479_7336.n22 0.196152
R146 a_2479_7336.n22 a_2479_7336.n20 0.196152
R147 a_2479_7336.n20 a_2479_7336.n18 0.196152
R148 a_2479_7336.n18 a_2479_7336.n16 0.196152
R149 a_2479_7336.n16 a_2479_7336.n14 0.196152
R150 a_2479_7336.n14 a_2479_7336.n12 0.196152
R151 a_2479_7336.n12 a_2479_7336.n0 0.196152
R152 a_2479_7336.n28 a_2479_7336.n0 0.196152
R153 a_2479_7336.n68 a_2479_7336.n67 0.188
R154 a_2479_7336.n69 a_2479_7336.n68 0.188
R155 a_2479_7336.n85 a_2479_7336.n82 0.188
R156 a_2479_7336.n85 a_2479_7336.n84 0.188
R157 VOUT.n31 VOUT.t26 260.298
R158 VOUT.t22 VOUT.n31 260.298
R159 VOUT.t26 VOUT.n26 260.298
R160 VOUT.n2 VOUT.t24 260.298
R161 VOUT.t20 VOUT.n2 260.298
R162 VOUT.n3 VOUT.t20 260.298
R163 VOUT.n32 VOUT.t22 260.111
R164 VOUT.t24 VOUT.n0 260.111
R165 VOUT.n30 VOUT.t28 232.03
R166 VOUT.t21 VOUT.n1 232.03
R167 VOUT.n20 VOUT.n18 206.708
R168 VOUT.n24 VOUT.n23 206.094
R169 VOUT.n22 VOUT.n21 206.094
R170 VOUT.n20 VOUT.n19 206.094
R171 VOUT.n16 VOUT.n15 206.094
R172 VOUT.n14 VOUT.n13 206.094
R173 VOUT.n12 VOUT.n11 206.094
R174 VOUT.n10 VOUT.n9 206.094
R175 VOUT.n29 VOUT.n28 203.03
R176 VOUT.n27 VOUT.n25 203.03
R177 VOUT.n7 VOUT.n6 203.03
R178 VOUT.n5 VOUT.n4 203.03
R179 VOUT.n62 VOUT.n61 185
R180 VOUT.n62 VOUT.n44 185
R181 VOUT.n62 VOUT.n43 185
R182 VOUT.n62 VOUT.n42 185
R183 VOUT.n62 VOUT.n41 185
R184 VOUT.n62 VOUT.n40 185
R185 VOUT.n62 VOUT.n39 185
R186 VOUT.n45 VOUT.t29 130.75
R187 VOUT.n45 VOUT.t31 91.3557
R188 VOUT.n63 VOUT.n62 86.5152
R189 VOUT.n47 VOUT.n38 30.3012
R190 VOUT.n28 VOUT.t23 28.5655
R191 VOUT.n28 VOUT.t27 28.5655
R192 VOUT.n27 VOUT.t14 28.5655
R193 VOUT.t23 VOUT.n27 28.5655
R194 VOUT.n23 VOUT.t3 28.5655
R195 VOUT.n23 VOUT.t16 28.5655
R196 VOUT.n21 VOUT.t7 28.5655
R197 VOUT.n21 VOUT.t12 28.5655
R198 VOUT.n19 VOUT.t2 28.5655
R199 VOUT.n19 VOUT.t15 28.5655
R200 VOUT.n18 VOUT.t10 28.5655
R201 VOUT.n18 VOUT.t11 28.5655
R202 VOUT.n6 VOUT.t25 28.5655
R203 VOUT.n6 VOUT.t8 28.5655
R204 VOUT.n5 VOUT.t21 28.5655
R205 VOUT.t25 VOUT.n5 28.5655
R206 VOUT.n15 VOUT.t13 28.5655
R207 VOUT.n15 VOUT.t1 28.5655
R208 VOUT.n13 VOUT.t0 28.5655
R209 VOUT.n13 VOUT.t5 28.5655
R210 VOUT.n11 VOUT.t17 28.5655
R211 VOUT.n11 VOUT.t6 28.5655
R212 VOUT.n9 VOUT.t9 28.5655
R213 VOUT.n9 VOUT.t4 28.5655
R214 VOUT.n61 VOUT.n37 24.8476
R215 VOUT.n60 VOUT.n44 23.3417
R216 VOUT.n64 VOUT.n63 22.0256
R217 VOUT.n57 VOUT.n43 21.8358
R218 VOUT.n55 VOUT.n42 20.3299
R219 VOUT.n65 VOUT.n64 19.0885
R220 VOUT.n53 VOUT.n41 18.824
R221 VOUT.n51 VOUT.n40 17.3181
R222 VOUT.n62 VOUT.n38 16.3559
R223 VOUT.n49 VOUT.n39 15.8123
R224 VOUT.n67 VOUT.t32 14.7991
R225 VOUT.n63 VOUT.n37 12.7256
R226 VOUT.n47 VOUT.n39 11.2946
R227 VOUT.n49 VOUT.n40 9.78874
R228 VOUT.n37 VOUT.n36 9.3005
R229 VOUT.n60 VOUT.n59 9.3005
R230 VOUT.n58 VOUT.n57 9.3005
R231 VOUT.n56 VOUT.n55 9.3005
R232 VOUT.n54 VOUT.n53 9.3005
R233 VOUT.n52 VOUT.n51 9.3005
R234 VOUT.n50 VOUT.n49 9.3005
R235 VOUT.n48 VOUT.n47 9.3005
R236 VOUT.n51 VOUT.n41 8.28285
R237 VOUT.n53 VOUT.n42 6.77697
R238 VOUT.n55 VOUT.n43 5.27109
R239 VOUT.t19 VOUT.n66 3.9533
R240 VOUT.n57 VOUT.n44 3.76521
R241 VOUT.n65 VOUT.n35 3.29996
R242 VOUT.n10 VOUT.n8 3.23261
R243 VOUT.n34 VOUT.n33 2.55612
R244 VOUT.n62 VOUT.t33 2.48621
R245 VOUT.n62 VOUT.t30 2.48621
R246 VOUT VOUT.n34 2.47337
R247 VOUT.n46 VOUT.n38 2.36936
R248 VOUT.n61 VOUT.n60 2.25932
R249 VOUT.n17 VOUT.n16 2.12962
R250 VOUT VOUT.n67 1.76033
R251 VOUT.n35 VOUT.n17 1.09816
R252 VOUT.n22 VOUT.n20 0.61449
R253 VOUT.n24 VOUT.n22 0.61449
R254 VOUT.n34 VOUT.n24 0.61449
R255 VOUT.n12 VOUT.n10 0.61449
R256 VOUT.n14 VOUT.n12 0.61449
R257 VOUT.n16 VOUT.n14 0.61449
R258 VOUT.n35 VOUT 0.521984
R259 VOUT.n8 VOUT.n7 0.446229
R260 VOUT.n7 VOUT.n1 0.43664
R261 VOUT.n30 VOUT.n25 0.436638
R262 VOUT.n33 VOUT.n25 0.38373
R263 VOUT.n29 VOUT.n26 0.38373
R264 VOUT.n4 VOUT.n3 0.383729
R265 VOUT.n46 VOUT.n45 0.320353
R266 VOUT.n31 VOUT.n30 0.285826
R267 VOUT.n2 VOUT.n1 0.285826
R268 VOUT.n66 VOUT.n65 0.220947
R269 VOUT.n64 VOUT.n36 0.196152
R270 VOUT.n59 VOUT.n36 0.196152
R271 VOUT.n59 VOUT.n58 0.196152
R272 VOUT.n58 VOUT.n56 0.196152
R273 VOUT.n56 VOUT.n54 0.196152
R274 VOUT.n54 VOUT.n52 0.196152
R275 VOUT.n52 VOUT.n50 0.196152
R276 VOUT.n50 VOUT.n48 0.196152
R277 VOUT.n48 VOUT.n46 0.196152
R278 VOUT.n33 VOUT.n32 0.188
R279 VOUT.n32 VOUT.n26 0.188
R280 VOUT.n3 VOUT.n0 0.188
R281 VOUT.n8 VOUT.n0 0.1255
R282 VOUT.n4 VOUT.n1 0.0984044
R283 VOUT.n30 VOUT.n29 0.0984028
R284 VOUT.n66 VOUT.n17 0.0649934
R285 VOUT.n67 VOUT.t19 0.0170587
R286 VOUT VOUT.t18 0.00167066
R287 VDD.n297 VDD.n68 723.529
R288 VDD.n73 VDD.n65 723.529
R289 VDD.n136 VDD.n112 723.529
R290 VDD.n180 VDD.n114 723.529
R291 VDD.n257 VDD.n256 515.294
R292 VDD.n55 VDD.n51 275.295
R293 VDD.n147 VDD.n131 275.295
R294 VDD.n34 VDD.t73 260.486
R295 VDD.n20 VDD.t52 260.486
R296 VDD.n330 VDD.t43 260.486
R297 VDD.n315 VDD.t58 260.486
R298 VDD.t38 VDD.n38 260.298
R299 VDD.n36 VDD.t54 260.298
R300 VDD.n39 VDD.t38 260.298
R301 VDD.t71 VDD.n19 260.298
R302 VDD.n17 VDD.t60 260.298
R303 VDD.n13 VDD.t60 260.298
R304 VDD.t47 VDD.n327 260.298
R305 VDD.t62 VDD.n329 260.298
R306 VDD.n334 VDD.t47 260.298
R307 VDD.n312 VDD.t69 260.298
R308 VDD.t69 VDD.n309 260.298
R309 VDD.n316 VDD.t75 260.298
R310 VDD.n1 VDD.t45 260.199
R311 VDD.n352 VDD.t64 260.199
R312 VDD.t56 VDD.n32 260.111
R313 VDD.n37 VDD.t56 260.111
R314 VDD.t54 VDD.n34 260.111
R315 VDD.n20 VDD.t71 260.111
R316 VDD.t41 VDD.n12 260.111
R317 VDD.n18 VDD.t41 260.111
R318 VDD.n333 VDD.t67 260.111
R319 VDD.t67 VDD.n332 260.111
R320 VDD.n330 VDD.t62 260.111
R321 VDD.t75 VDD.n315 260.111
R322 VDD.n314 VDD.t50 260.111
R323 VDD.t50 VDD.n313 260.111
R324 VDD.n67 VDD.n66 240
R325 VDD.n292 VDD.n66 240
R326 VDD.n290 VDD.n289 240
R327 VDD.n301 VDD.n50 240
R328 VDD.n253 VDD.n252 240
R329 VDD.n261 VDD.n260 240
R330 VDD.n265 VDD.n264 240
R331 VDD.n269 VDD.n268 240
R332 VDD.n273 VDD.n272 240
R333 VDD.n277 VDD.n276 240
R334 VDD.n279 VDD.n65 240
R335 VDD.n186 VDD.n112 240
R336 VDD.n186 VDD.n110 240
R337 VDD.n190 VDD.n110 240
R338 VDD.n190 VDD.n105 240
R339 VDD.n199 VDD.n105 240
R340 VDD.n199 VDD.n103 240
R341 VDD.n203 VDD.n103 240
R342 VDD.n203 VDD.n98 240
R343 VDD.n212 VDD.n98 240
R344 VDD.n212 VDD.n96 240
R345 VDD.n216 VDD.n96 240
R346 VDD.n216 VDD.n91 240
R347 VDD.n224 VDD.n91 240
R348 VDD.n224 VDD.n89 240
R349 VDD.n228 VDD.n89 240
R350 VDD.n228 VDD.n83 240
R351 VDD.n236 VDD.n83 240
R352 VDD.n236 VDD.n81 240
R353 VDD.n240 VDD.n81 240
R354 VDD.n240 VDD.n75 240
R355 VDD.n248 VDD.n75 240
R356 VDD.n248 VDD.n72 240
R357 VDD.n284 VDD.n72 240
R358 VDD.n284 VDD.n73 240
R359 VDD.n178 VDD.n177 240
R360 VDD.n175 VDD.n119 240
R361 VDD.n171 VDD.n170 240
R362 VDD.n168 VDD.n122 240
R363 VDD.n164 VDD.n163 240
R364 VDD.n161 VDD.n125 240
R365 VDD.n157 VDD.n156 240
R366 VDD.n154 VDD.n128 240
R367 VDD.n150 VDD.n149 240
R368 VDD.n143 VDD.n142 240
R369 VDD.n140 VDD.n134 240
R370 VDD.n184 VDD.n114 240
R371 VDD.n184 VDD.n109 240
R372 VDD.n193 VDD.n109 240
R373 VDD.n193 VDD.n107 240
R374 VDD.n197 VDD.n107 240
R375 VDD.n197 VDD.n102 240
R376 VDD.n206 VDD.n102 240
R377 VDD.n206 VDD.n100 240
R378 VDD.n210 VDD.n100 240
R379 VDD.n210 VDD.n95 240
R380 VDD.n218 VDD.n95 240
R381 VDD.n218 VDD.n93 240
R382 VDD.n222 VDD.n93 240
R383 VDD.n222 VDD.n87 240
R384 VDD.n230 VDD.n87 240
R385 VDD.n230 VDD.n85 240
R386 VDD.n234 VDD.n85 240
R387 VDD.n234 VDD.n79 240
R388 VDD.n242 VDD.n79 240
R389 VDD.n242 VDD.n77 240
R390 VDD.n246 VDD.n77 240
R391 VDD.n246 VDD.n70 240
R392 VDD.n286 VDD.n70 240
R393 VDD.n286 VDD.n68 240
R394 VDD.n31 VDD.t40 232.03