* NGSPICE file created from two_stage_op_amp.ext - technology: sky130A

.subckt two_stage_op_amp EN VSS IBIAS VOUT VP VN VDD
X0 a_6681_4767.t27 a_4943_7756.t8 VSS.t123 VSS.t8 sky130_fd_pr__nfet_01v8_lvt ad=0.435 pd=3.29 as=0.435 ps=3.29 w=3 l=1
X1 VDD.t60 a_6681_14134.t0 a_6681_14134.t1 VDD.t57 sky130_fd_pr__pfet_01v8 ad=0.145 pd=1.29 as=0.145 ps=1.29 w=1 l=0.4
X2 VSS.t81 VSS.t80 VSS.t81 VSS.t27 sky130_fd_pr__nfet_01v8_lvt ad=1.015 pd=7.29 as=0 ps=0 w=7 l=1
X3 VSS.t79 VSS.t78 VSS.t79 VSS.t2 sky130_fd_pr__nfet_01v8_lvt ad=1.015 pd=7.29 as=0 ps=0 w=7 l=1
X4 VDD.t67 a_6092_17969.t18 VOUT.t18 VDD.t50 sky130_fd_pr__pfet_01v8 ad=0.145 pd=1.29 as=0.145 ps=1.29 w=1 l=0.4
X5 VSS.t122 a_4943_7756.t9 a_6681_4767.t26 VSS.t0 sky130_fd_pr__nfet_01v8_lvt ad=0.435 pd=3.29 as=0.435 ps=3.29 w=3 l=1
X6 VSS.t77 VSS.t76 VSS.t77 VSS.t11 sky130_fd_pr__nfet_01v8_lvt ad=0.435 pd=3.29 as=0 ps=0 w=3 l=1
X7 VSS.t75 VSS.t74 VSS.t75 VSS.t66 sky130_fd_pr__nfet_01v8_lvt ad=1.015 pd=7.29 as=0 ps=0 w=7 l=1
X8 a_6681_4767.t3 a_6681_4767.t1 a_6681_4767.t2 VSS.t125 sky130_fd_pr__nfet_01v8_lvt ad=2.03 pd=14.58 as=0 ps=0 w=7 l=1
X9 VOUT.t29 VOUT.t28 VOUT.t29 VDD.t15 sky130_fd_pr__pfet_01v8 ad=0.145 pd=1.29 as=0 ps=0 w=1 l=0.4
X10 a_6681_14134.t6 a_6681_14134.t5 a_6681_14134.t6 VSS.t3 sky130_fd_pr__nfet_01v8_lvt ad=1.015 pd=7.29 as=0 ps=0 w=7 l=1
X11 VSS.t73 VSS.t72 VSS.t73 VSS.t1 sky130_fd_pr__nfet_01v8_lvt ad=1.015 pd=7.29 as=0 ps=0 w=7 l=1
X12 VOUT.t17 a_6092_17969.t19 VDD.t69 VDD.t6 sky130_fd_pr__pfet_01v8 ad=0.145 pd=1.29 as=0.145 ps=1.29 w=1 l=0.4
X13 VDD.t49 VDD.t48 VDD.t49 VDD.t9 sky130_fd_pr__pfet_01v8 ad=0.145 pd=1.29 as=0 ps=0 w=1 l=0.4
X14 VOUT.t27 VOUT.t25 VOUT.t26 VDD.t4 sky130_fd_pr__pfet_01v8 ad=0.29 pd=2.58 as=0 ps=0 w=1 l=0.4
X15 a_6681_4767.t25 a_4943_7756.t10 VSS.t121 VSS.t24 sky130_fd_pr__nfet_01v8_lvt ad=0.435 pd=3.29 as=0.435 ps=3.29 w=3 l=1
X16 VSS.t71 VSS.t70 VSS.t71 VSS.t3 sky130_fd_pr__nfet_01v8_lvt ad=1.015 pd=7.29 as=0 ps=0 w=7 l=1
X17 VOUT.t16 a_6092_17969.t20 VDD.t72 VDD.t57 sky130_fd_pr__pfet_01v8 ad=0.145 pd=1.29 as=0.145 ps=1.29 w=1 l=0.4
X18 a_6092_17969.t2 VP.t0 a_6105_7756.t7 VSS.t2 sky130_fd_pr__nfet_01v8_lvt ad=1.015 pd=7.29 as=1.015 ps=7.29 w=7 l=1
X19 a_6092_17969.t13 VP.t1 a_6105_7756.t6 VSS.t66 sky130_fd_pr__nfet_01v8_lvt ad=1.015 pd=7.29 as=1.015 ps=7.29 w=7 l=1
X20 a_6681_4767.t24 a_4943_7756.t11 VSS.t120 VSS.t106 sky130_fd_pr__nfet_01v8_lvt ad=0.435 pd=3.29 as=0.435 ps=3.29 w=3 l=1
X21 a_6423_5719.t13 a_4943_7756.t12 VSS.t119 VSS.t18 sky130_fd_pr__nfet_01v8_lvt ad=0.435 pd=3.29 as=0.435 ps=3.29 w=3 l=1
X22 a_6423_5719.t12 a_4943_7756.t13 VSS.t118 VSS.t2 sky130_fd_pr__nfet_01v8_lvt ad=0.435 pd=3.29 as=0.435 ps=3.29 w=3 l=1
X23 VSS.t117 a_4943_7756.t14 a_6681_4767.t23 VSS.t103 sky130_fd_pr__nfet_01v8_lvt ad=0.435 pd=3.29 as=0.435 ps=3.29 w=3 l=1
X24 a_6105_7756.t15 VN.t0 a_6681_14134.t17 VSS.t1 sky130_fd_pr__nfet_01v8_lvt ad=1.015 pd=7.29 as=1.015 ps=7.29 w=7 l=1
X25 VOUT.t24 VOUT.t23 VOUT.t24 VDD.t9 sky130_fd_pr__pfet_01v8 ad=0.145 pd=1.29 as=0 ps=0 w=1 l=0.4
X26 VSS.t116 a_4943_7756.t15 a_6423_5719.t11 VSS.t8 sky130_fd_pr__nfet_01v8_lvt ad=0.435 pd=3.29 as=0.435 ps=3.29 w=3 l=1
X27 VDD.t47 VDD.t45 VDD.t46 VDD.t4 sky130_fd_pr__pfet_01v8 ad=0.29 pd=2.58 as=0 ps=0 w=1 l=0.4
X28 a_6681_4767.t22 a_4943_7756.t16 VSS.t115 VSS.t24 sky130_fd_pr__nfet_01v8_lvt ad=0.435 pd=3.29 as=0.435 ps=3.29 w=3 l=1
X29 a_6423_5719.t10 a_4943_7756.t17 VSS.t114 VSS.t0 sky130_fd_pr__nfet_01v8_lvt ad=0.435 pd=3.29 as=0.435 ps=3.29 w=3 l=1
X30 a_6423_5719.t9 a_4943_7756.t18 VSS.t113 VSS.t11 sky130_fd_pr__nfet_01v8_lvt ad=0.435 pd=3.29 as=0.435 ps=3.29 w=3 l=1
X31 a_6681_14134.t20 VN.t1 a_6105_7756.t18 VSS.t2 sky130_fd_pr__nfet_01v8_lvt ad=1.015 pd=7.29 as=1.015 ps=7.29 w=7 l=1
X32 a_6681_14134.t19 VN.t2 a_6105_7756.t17 VSS.t66 sky130_fd_pr__nfet_01v8_lvt ad=1.015 pd=7.29 as=1.015 ps=7.29 w=7 l=1
X33 VOUT.t22 VOUT.t21 VOUT.t22 VSS.t124 sky130_fd_pr__nfet_01v8_lvt ad=1.015 pd=7.29 as=0 ps=0 w=7 l=1
X34 VSS.t69 VSS.t68 VSS.t69 VSS.t2 sky130_fd_pr__nfet_01v8_lvt ad=1.015 pd=7.29 as=0 ps=0 w=7 l=1
X35 a_6681_4767.t21 a_4943_7756.t19 VSS.t112 VSS.t106 sky130_fd_pr__nfet_01v8_lvt ad=0.435 pd=3.29 as=0.435 ps=3.29 w=3 l=1
X36 a_6105_7756.t5 VP.t2 a_6092_17969.t1 VSS.t1 sky130_fd_pr__nfet_01v8_lvt ad=1.015 pd=7.29 as=1.015 ps=7.29 w=7 l=1
X37 VSS.t67 VSS.t65 VSS.t67 VSS.t66 sky130_fd_pr__nfet_01v8_lvt ad=1.015 pd=7.29 as=0 ps=0 w=7 l=1
X38 VOUT.t15 a_6092_17969.t21 VDD.t1 VDD.t0 sky130_fd_pr__pfet_01v8 ad=0.145 pd=1.29 as=0.145 ps=1.29 w=1 l=0.4
X39 VSS.t111 a_4943_7756.t20 a_6681_4767.t20 VSS.t103 sky130_fd_pr__nfet_01v8_lvt ad=0.435 pd=3.29 as=0.435 ps=3.29 w=3 l=1
X40 VOUT.t0 EN.t0 a_6681_4767.t0 VSS.t5 sky130_fd_pr__nfet_01v8_lvt ad=1.015 pd=7.29 as=1.015 ps=7.29 w=7 l=1
X41 VDD.t44 VDD.t42 VDD.t43 VDD.t4 sky130_fd_pr__pfet_01v8 ad=0.29 pd=2.58 as=0 ps=0 w=1 l=0.4
X42 VOUT.t14 a_6092_17969.t22 VDD.t64 VDD.t21 sky130_fd_pr__pfet_01v8 ad=0.145 pd=1.29 as=0.145 ps=1.29 w=1 l=0.4
X43 VSS.t64 VSS.t63 VSS.t64 VSS.t1 sky130_fd_pr__nfet_01v8_lvt ad=1.015 pd=7.29 as=0 ps=0 w=7 l=1
X44 VDD.t41 VDD.t40 VDD.t41 VDD.t18 sky130_fd_pr__pfet_01v8 ad=0.145 pd=1.29 as=0 ps=0 w=1 l=0.4
X45 VOUT.t13 a_6092_17969.t23 VDD.t61 VDD.t2 sky130_fd_pr__pfet_01v8 ad=0.145 pd=1.29 as=0.145 ps=1.29 w=1 l=0.4
X46 VDD.t70 a_6092_17969.t24 VOUT.t12 VDD.t52 sky130_fd_pr__pfet_01v8 ad=0.145 pd=1.29 as=0.145 ps=1.29 w=1 l=0.4
X47 a_6681_14134.t10 a_6681_14134.t9 VDD.t59 VDD.t50 sky130_fd_pr__pfet_01v8 ad=0.145 pd=1.29 as=0.145 ps=1.29 w=1 l=0.4
X48 VSS.t62 VSS.t61 VSS.t62 VSS.t38 sky130_fd_pr__nfet_01v8_lvt ad=0.435 pd=3.29 as=0 ps=0 w=3 l=1
X49 VDD.t39 VDD.t38 VDD.t39 VDD.t0 sky130_fd_pr__pfet_01v8 ad=0.145 pd=1.29 as=0 ps=0 w=1 l=0.4
X50 VSS.t110 a_4943_7756.t21 a_6423_5719.t8 VSS.t24 sky130_fd_pr__nfet_01v8_lvt ad=0.435 pd=3.29 as=0.435 ps=3.29 w=3 l=1
X51 VDD.t63 a_6092_17969.t25 VOUT.t11 VDD.t12 sky130_fd_pr__pfet_01v8 ad=0.145 pd=1.29 as=0.145 ps=1.29 w=1 l=0.4
X52 VSS.t60 VSS.t59 VSS.t60 VSS.t51 sky130_fd_pr__nfet_01v8_lvt ad=0.435 pd=3.29 as=0 ps=0 w=3 l=1
X53 a_6681_4767.t19 a_4943_7756.t22 VSS.t109 VSS.t1 sky130_fd_pr__nfet_01v8_lvt ad=0.435 pd=3.29 as=0.435 ps=3.29 w=3 l=1
X54 VDD.t37 VDD.t36 VDD.t37 VDD.t15 sky130_fd_pr__pfet_01v8 ad=0.145 pd=1.29 as=0 ps=0 w=1 l=0.4
X55 VDD.t35 VDD.t34 VDD.t35 VDD.t21 sky130_fd_pr__pfet_01v8 ad=0.145 pd=1.29 as=0 ps=0 w=1 l=0.4
X56 VSS.t108 a_4943_7756.t23 a_6681_4767.t18 VSS.t27 sky130_fd_pr__nfet_01v8_lvt ad=0.435 pd=3.29 as=0.435 ps=3.29 w=3 l=1
X57 VSS.t58 VSS.t57 VSS.t58 VSS.t0 sky130_fd_pr__nfet_01v8_lvt ad=1.015 pd=7.29 as=0 ps=0 w=7 l=1
X58 VDD.t33 VDD.t32 VDD.t33 VDD.t6 sky130_fd_pr__pfet_01v8 ad=0.145 pd=1.29 as=0 ps=0 w=1 l=0.4
X59 VSS.t107 a_4943_7756.t24 a_6423_5719.t7 VSS.t106 sky130_fd_pr__nfet_01v8_lvt ad=0.435 pd=3.29 as=0.435 ps=3.29 w=3 l=1
X60 a_6681_4767.t17 a_4943_7756.t25 VSS.t105 VSS.t3 sky130_fd_pr__nfet_01v8_lvt ad=0.435 pd=3.29 as=0.435 ps=3.29 w=3 l=1
X61 VDD.t56 a_6681_14134.t21 a_6092_17969.t12 VDD.t2 sky130_fd_pr__pfet_01v8 ad=0.145 pd=1.29 as=0.145 ps=1.29 w=1 l=0.4
X62 a_6423_5719.t6 a_4943_7756.t26 VSS.t104 VSS.t103 sky130_fd_pr__nfet_01v8_lvt ad=0.435 pd=3.29 as=0.435 ps=3.29 w=3 l=1
X63 VDD.t58 a_6681_14134.t22 a_6092_17969.t11 VDD.t57 sky130_fd_pr__pfet_01v8 ad=0.145 pd=1.29 as=0.145 ps=1.29 w=1 l=0.4
X64 VSS.t56 VSS.t55 VSS.t56 VSS.t32 sky130_fd_pr__nfet_01v8_lvt ad=1.015 pd=7.29 as=0 ps=0 w=7 l=1
X65 a_6681_14134.t12 a_6681_14134.t11 VDD.t55 VDD.t52 sky130_fd_pr__pfet_01v8 ad=0.145 pd=1.29 as=0.145 ps=1.29 w=1 l=0.4
X66 VOUT.t10 a_6092_17969.t26 VDD.t76 VDD.t0 sky130_fd_pr__pfet_01v8 ad=0.145 pd=1.29 as=0.145 ps=1.29 w=1 l=0.4
X67 VSS.t54 VSS.t53 VSS.t54 VSS.t38 sky130_fd_pr__nfet_01v8_lvt ad=0.435 pd=3.29 as=0 ps=0 w=3 l=1
X68 C1.t1 VOUT.t30 sky130_fd_pr__cap_mim_m3_1 l=25.5 w=25.5
X69 VSS.t52 VSS.t50 VSS.t52 VSS.t51 sky130_fd_pr__nfet_01v8_lvt ad=0.435 pd=3.29 as=0 ps=0 w=3 l=1
X70 VDD.t31 VDD.t30 VDD.t31 VDD.t12 sky130_fd_pr__pfet_01v8 ad=0.145 pd=1.29 as=0 ps=0 w=1 l=0.4
X71 a_6681_4767.t16 a_4943_7756.t27 VSS.t102 VSS.t1 sky130_fd_pr__nfet_01v8_lvt ad=0.435 pd=3.29 as=0.435 ps=3.29 w=3 l=1
X72 VOUT.t9 a_6092_17969.t27 VDD.t62 VDD.t21 sky130_fd_pr__pfet_01v8 ad=0.145 pd=1.29 as=0.145 ps=1.29 w=1 l=0.4
X73 a_6681_14134.t14 VN.t3 a_6105_7756.t12 VSS.t0 sky130_fd_pr__nfet_01v8_lvt ad=1.015 pd=7.29 as=1.015 ps=7.29 w=7 l=1
X74 VSS.t101 a_4943_7756.t28 a_6681_4767.t15 VSS.t27 sky130_fd_pr__nfet_01v8_lvt ad=0.435 pd=3.29 as=0.435 ps=3.29 w=3 l=1
X75 IBIAS.t1 IBIAS.t0 IBIAS.t1 VSS.t126 sky130_fd_pr__nfet_01v8_lvt ad=1.015 pd=7.29 as=0 ps=0 w=7 l=1
X76 VDD.t29 VDD.t28 VDD.t29 VDD.t9 sky130_fd_pr__pfet_01v8 ad=0.145 pd=1.29 as=0 ps=0 w=1 l=0.4
X77 IBIAS.t2 EN.t1 a_4943_7756.t7 VSS.t128 sky130_fd_pr__nfet_01v8_lvt ad=1.015 pd=7.29 as=1.015 ps=7.29 w=7 l=1
X78 VOUT.t8 a_6092_17969.t28 VDD.t3 VDD.t2 sky130_fd_pr__pfet_01v8 ad=0.145 pd=1.29 as=0.145 ps=1.29 w=1 l=0.4
X79 a_6681_4767.t14 a_4943_7756.t29 VSS.t100 VSS.t3 sky130_fd_pr__nfet_01v8_lvt ad=0.435 pd=3.29 as=0.435 ps=3.29 w=3 l=1
X80 a_6105_7756.t4 VP.t3 a_6092_17969.t14 VSS.t32 sky130_fd_pr__nfet_01v8_lvt ad=1.015 pd=7.29 as=1.015 ps=7.29 w=7 l=1
X81 VDD.t73 a_6092_17969.t29 VOUT.t7 VDD.t52 sky130_fd_pr__pfet_01v8 ad=0.145 pd=1.29 as=0.145 ps=1.29 w=1 l=0.4
X82 a_4943_7756.t4 a_4943_7756.t2 a_4943_7756.t3 VSS.t99 sky130_fd_pr__nfet_01v8_lvt ad=2.03 pd=14.58 as=0 ps=0 w=7 l=1
X83 VSS.t49 VSS.t48 VSS.t49 VSS.t24 sky130_fd_pr__nfet_01v8_lvt ad=1.015 pd=7.29 as=0 ps=0 w=7 l=1
X84 VSS.t47 VSS.t45 VSS.t46 VSS.t14 sky130_fd_pr__nfet_01v8_lvt ad=0.87 pd=6.58 as=0 ps=0 w=3 l=1
X85 VDD.t74 a_6092_17969.t30 VOUT.t6 VDD.t12 sky130_fd_pr__pfet_01v8 ad=0.145 pd=1.29 as=0.145 ps=1.29 w=1 l=0.4
X86 a_6092_17969.t0 VP.t4 a_6105_7756.t3 VSS.t0 sky130_fd_pr__nfet_01v8_lvt ad=1.015 pd=7.29 as=1.015 ps=7.29 w=7 l=1
X87 VSS.t98 a_4943_7756.t30 a_6681_4767.t13 VSS.t66 sky130_fd_pr__nfet_01v8_lvt ad=0.435 pd=3.29 as=0.435 ps=3.29 w=3 l=1
X88 VSS.t44 VSS.t42 VSS.t43 VSS.t18 sky130_fd_pr__nfet_01v8_lvt ad=2.03 pd=14.58 as=0 ps=0 w=7 l=1
X89 VDD.t27 VDD.t25 VDD.t26 VDD.t4 sky130_fd_pr__pfet_01v8 ad=0.29 pd=2.58 as=0 ps=0 w=1 l=0.4
X90 a_6105_7756.t14 VN.t4 a_6681_14134.t16 VSS.t32 sky130_fd_pr__nfet_01v8_lvt ad=1.015 pd=7.29 as=1.015 ps=7.29 w=7 l=1
X91 VSS.t41 VSS.t40 VSS.t41 VSS.t0 sky130_fd_pr__nfet_01v8_lvt ad=1.015 pd=7.29 as=0 ps=0 w=7 l=1
X92 VSS.t39 VSS.t37 VSS.t39 VSS.t38 sky130_fd_pr__nfet_01v8_lvt ad=0.435 pd=3.29 as=0 ps=0 w=3 l=1
X93 VSS.t95 a_4943_7756.t31 a_6423_5719.t5 VSS.t51 sky130_fd_pr__nfet_01v8_lvt ad=0.435 pd=3.29 as=0.435 ps=3.29 w=3 l=1
X94 VSS.t97 a_4943_7756.t32 a_6423_5719.t4 VSS.t1 sky130_fd_pr__nfet_01v8_lvt ad=0.435 pd=3.29 as=0.435 ps=3.29 w=3 l=1
X95 a_6105_7756.t2 VP.t5 a_6092_17969.t16 VSS.t24 sky130_fd_pr__nfet_01v8_lvt ad=1.015 pd=7.29 as=1.015 ps=7.29 w=7 l=1
X96 a_6681_4767.t12 a_4943_7756.t33 VSS.t96 VSS.t32 sky130_fd_pr__nfet_01v8_lvt ad=0.435 pd=3.29 as=0.435 ps=3.29 w=3 l=1
X97 VSS.t36 VSS.t34 VSS.t35 VSS.t14 sky130_fd_pr__nfet_01v8_lvt ad=0.87 pd=6.58 as=0 ps=0 w=3 l=1
X98 a_6423_5719.t3 a_4943_7756.t34 VSS.t94 VSS.t27 sky130_fd_pr__nfet_01v8_lvt ad=0.435 pd=3.29 as=0.435 ps=3.29 w=3 l=1
X99 VSS.t33 VSS.t31 VSS.t33 VSS.t32 sky130_fd_pr__nfet_01v8_lvt ad=1.015 pd=7.29 as=0 ps=0 w=7 l=1
X100 VSS.t30 VSS.t29 VSS.t30 VSS.t8 sky130_fd_pr__nfet_01v8_lvt ad=1.015 pd=7.29 as=0 ps=0 w=7 l=1
X101 VSS.t93 a_4943_7756.t35 a_6423_5719.t2 VSS.t3 sky130_fd_pr__nfet_01v8_lvt ad=0.435 pd=3.29 as=0.435 ps=3.29 w=3 l=1
X102 a_6092_17969.t8 a_6092_17969.t6 a_6092_17969.t7 VSS.t18 sky130_fd_pr__nfet_01v8_lvt ad=2.03 pd=14.58 as=0 ps=0 w=7 l=1
X103 VSS.t92 a_4943_7756.t36 a_6681_4767.t11 VSS.t66 sky130_fd_pr__nfet_01v8_lvt ad=0.435 pd=3.29 as=0.435 ps=3.29 w=3 l=1
X104 VDD.t75 a_6092_17969.t31 VOUT.t5 VDD.t18 sky130_fd_pr__pfet_01v8 ad=0.145 pd=1.29 as=0.145 ps=1.29 w=1 l=0.4
X105 VSS.t28 VSS.t26 VSS.t28 VSS.t27 sky130_fd_pr__nfet_01v8_lvt ad=1.015 pd=7.29 as=0 ps=0 w=7 l=1
X106 a_6105_7756.t16 VN.t5 a_6681_14134.t18 VSS.t24 sky130_fd_pr__nfet_01v8_lvt ad=1.015 pd=7.29 as=1.015 ps=7.29 w=7 l=1
X107 a_6681_4767.t10 a_4943_7756.t37 VSS.t91 VSS.t32 sky130_fd_pr__nfet_01v8_lvt ad=0.435 pd=3.29 as=0.435 ps=3.29 w=3 l=1
X108 VDD.t65 a_6092_17969.t32 VOUT.t4 VDD.t50 sky130_fd_pr__pfet_01v8 ad=0.145 pd=1.29 as=0.145 ps=1.29 w=1 l=0.4
X109 a_6105_7756.t8 VN.t6 a_6681_14134.t13 VSS.t8 sky130_fd_pr__nfet_01v8_lvt ad=1.015 pd=7.29 as=1.015 ps=7.29 w=7 l=1
X110 VSS.t25 VSS.t23 VSS.t25 VSS.t24 sky130_fd_pr__nfet_01v8_lvt ad=1.015 pd=7.29 as=0 ps=0 w=7 l=1
X111 a_6681_14134.t4 a_6681_14134.t2 a_6681_14134.t3 VSS.t18 sky130_fd_pr__nfet_01v8_lvt ad=2.03 pd=14.58 as=0 ps=0 w=7 l=1
X112 VDD.t24 VDD.t23 VDD.t24 VDD.t0 sky130_fd_pr__pfet_01v8 ad=0.145 pd=1.29 as=0 ps=0 w=1 l=0.4
X113 VDD.t66 a_6092_17969.t33 VOUT.t3 VDD.t15 sky130_fd_pr__pfet_01v8 ad=0.145 pd=1.29 as=0.145 ps=1.29 w=1 l=0.4
X114 VSS.t22 VSS.t21 VSS.t22 VSS.t3 sky130_fd_pr__nfet_01v8_lvt ad=1.015 pd=7.29 as=0 ps=0 w=7 l=1
X115 VDD.t22 VDD.t20 VDD.t22 VDD.t21 sky130_fd_pr__pfet_01v8 ad=0.145 pd=1.29 as=0 ps=0 w=1 l=0.4
X116 VOUT.t20 VOUT.t19 VOUT.t20 VDD.t6 sky130_fd_pr__pfet_01v8 ad=0.145 pd=1.29 as=0 ps=0 w=1 l=0.4
X117 VSS.t20 VSS.t17 VSS.t19 VSS.t18 sky130_fd_pr__nfet_01v8_lvt ad=2.03 pd=14.58 as=0 ps=0 w=7 l=1
X118 VSS.t90 a_4943_7756.t38 a_6681_4767.t9 VSS.t18 sky130_fd_pr__nfet_01v8_lvt ad=0.435 pd=3.29 as=0.435 ps=3.29 w=3 l=1
X119 a_6681_14134.t15 VN.t7 a_6105_7756.t13 VSS.t27 sky130_fd_pr__nfet_01v8_lvt ad=1.015 pd=7.29 as=1.015 ps=7.29 w=7 l=1
X120 VDD.t19 VDD.t17 VDD.t19 VDD.t18 sky130_fd_pr__pfet_01v8 ad=0.145 pd=1.29 as=0 ps=0 w=1 l=0.4
X121 VSS.t89 a_4943_7756.t39 a_6681_4767.t8 VSS.t2 sky130_fd_pr__nfet_01v8_lvt ad=0.435 pd=3.29 as=0.435 ps=3.29 w=3 l=1
X122 VSS.t16 VSS.t13 VSS.t15 VSS.t14 sky130_fd_pr__nfet_01v8_lvt ad=0.87 pd=6.58 as=0 ps=0 w=3 l=1
X123 a_6423_5719.t1 a_6423_5719.t0 a_6423_5719.t1 VSS.t82 sky130_fd_pr__nfet_01v8_lvt ad=1.015 pd=7.29 as=0 ps=0 w=7 l=1
X124 C1.t0 a_6092_17969.t3 VSS.t6 sky130_fd_pr__res_xhigh_po_1p41 l=14
X125 VOUT.t2 a_6092_17969.t34 VDD.t68 VDD.t57 sky130_fd_pr__pfet_01v8 ad=0.145 pd=1.29 as=0.145 ps=1.29 w=1 l=0.4
X126 a_6681_4767.t7 a_4943_7756.t40 VSS.t88 VSS.t8 sky130_fd_pr__nfet_01v8_lvt ad=0.435 pd=3.29 as=0.435 ps=3.29 w=3 l=1
X127 a_6105_7756.t1 VP.t6 a_6092_17969.t15 VSS.t8 sky130_fd_pr__nfet_01v8_lvt ad=1.015 pd=7.29 as=1.015 ps=7.29 w=7 l=1
X128 VDD.t54 a_6681_14134.t7 a_6681_14134.t8 VDD.t2 sky130_fd_pr__pfet_01v8 ad=0.145 pd=1.29 as=0.145 ps=1.29 w=1 l=0.4
X129 a_4943_7756.t6 a_4943_7756.t5 VSS.t87 VSS.t66 sky130_fd_pr__nfet_01v8_lvt ad=0.435 pd=3.29 as=0.435 ps=3.29 w=3 l=1
X130 VSS.t86 a_4943_7756.t41 a_6681_4767.t6 VSS.t0 sky130_fd_pr__nfet_01v8_lvt ad=0.435 pd=3.29 as=0.435 ps=3.29 w=3 l=1
X131 VSS.t12 VSS.t10 VSS.t12 VSS.t11 sky130_fd_pr__nfet_01v8_lvt ad=0.435 pd=3.29 as=0 ps=0 w=3 l=1
X132 a_6423_5719.t14 EN.t2 a_6105_7756.t19 VSS.t127 sky130_fd_pr__nfet_01v8_lvt ad=1.015 pd=7.29 as=1.015 ps=7.29 w=7 l=1
X133 a_6092_17969.t10 a_6681_14134.t23 VDD.t53 VDD.t52 sky130_fd_pr__pfet_01v8 ad=0.145 pd=1.29 as=0.145 ps=1.29 w=1 l=0.4
X134 a_6092_17969.t9 a_6681_14134.t24 VDD.t51 VDD.t50 sky130_fd_pr__pfet_01v8 ad=0.145 pd=1.29 as=0.145 ps=1.29 w=1 l=0.4
X135 a_6105_7756.t11 a_6105_7756.t9 a_6105_7756.t10 VSS.t4 sky130_fd_pr__nfet_01v8_lvt ad=2.03 pd=14.58 as=0 ps=0 w=7 l=1
X136 VDD.t16 VDD.t14 VDD.t16 VDD.t15 sky130_fd_pr__pfet_01v8 ad=0.145 pd=1.29 as=0 ps=0 w=1 l=0.4
X137 VSS.t9 VSS.t7 VSS.t9 VSS.t8 sky130_fd_pr__nfet_01v8_lvt ad=1.015 pd=7.29 as=0 ps=0 w=7 l=1
X138 a_6092_17969.t5 a_6092_17969.t4 a_6092_17969.t5 VSS.t3 sky130_fd_pr__nfet_01v8_lvt ad=1.015 pd=7.29 as=0 ps=0 w=7 l=1
X139 a_6092_17969.t17 VP.t7 a_6105_7756.t0 VSS.t27 sky130_fd_pr__nfet_01v8_lvt ad=1.015 pd=7.29 as=1.015 ps=7.29 w=7 l=1
X140 VDD.t13 VDD.t11 VDD.t13 VDD.t12 sky130_fd_pr__pfet_01v8 ad=0.145 pd=1.29 as=0 ps=0 w=1 l=0.4
X141 VDD.t10 VDD.t8 VDD.t10 VDD.t9 sky130_fd_pr__pfet_01v8 ad=0.145 pd=1.29 as=0 ps=0 w=1 l=0.4
X142 VSS.t85 a_4943_7756.t0 a_4943_7756.t1 VSS.t32 sky130_fd_pr__nfet_01v8_lvt ad=0.435 pd=3.29 as=0.435 ps=3.29 w=3 l=1
X143 VDD.t71 a_6092_17969.t35 VOUT.t1 VDD.t18 sky130_fd_pr__pfet_01v8 ad=0.145 pd=1.29 as=0.145 ps=1.29 w=1 l=0.4
X144 VDD.t7 VDD.t5 VDD.t7 VDD.t6 sky130_fd_pr__pfet_01v8 ad=0.145 pd=1.29 as=0 ps=0 w=1 l=0.4
X145 VSS.t84 a_4943_7756.t42 a_6681_4767.t5 VSS.t18 sky130_fd_pr__nfet_01v8_lvt ad=0.435 pd=3.29 as=0.435 ps=3.29 w=3 l=1
X146 VSS.t83 a_4943_7756.t43 a_6681_4767.t4 VSS.t2 sky130_fd_pr__nfet_01v8_lvt ad=0.435 pd=3.29 as=0.435 ps=3.29 w=3 l=1
C0 EN VOUT 0.50424f
C1 VOUT C1 57.5804f
C2 VOUT VDD 9.39455f
C3 EN IBIAS 0.80215f
C4 VOUT VP 0.11738f
C5 VN VP 5.95617f
R0 a_4943_7756.n70 a_4943_7756.n52 185
R1 a_4943_7756.n70 a_4943_7756.n51 185
R2 a_4943_7756.n70 a_4943_7756.n50 185
R3 a_4943_7756.n70 a_4943_7756.n49 185
R4 a_4943_7756.n70 a_4943_7756.n48 185
R5 a_4943_7756.n70 a_4943_7756.n47 185
R6 a_4943_7756.n70 a_4943_7756.n46 185
R7 a_4943_7756.n91 a_4943_7756.n2 185
R8 a_4943_7756.n91 a_4943_7756.n3 185
R9 a_4943_7756.n91 a_4943_7756.n1 185
R10 a_4943_7756.n91 a_4943_7756.n5 185
R11 a_4943_7756.n91 a_4943_7756.n0 185
R12 a_4943_7756.n91 a_4943_7756.n90 185
R13 a_4943_7756.n33 a_4943_7756.t20 165.607
R14 a_4943_7756.n21 a_4943_7756.t31 165.607
R15 a_4943_7756.n43 a_4943_7756.t19 165.032
R16 a_4943_7756.n42 a_4943_7756.t42 165.032
R17 a_4943_7756.n41 a_4943_7756.t16 165.032
R18 a_4943_7756.n40 a_4943_7756.t28 165.032
R19 a_4943_7756.n39 a_4943_7756.t27 165.032
R20 a_4943_7756.n38 a_4943_7756.t36 165.032
R21 a_4943_7756.n37 a_4943_7756.t37 165.032
R22 a_4943_7756.n36 a_4943_7756.t9 165.032
R23 a_4943_7756.n35 a_4943_7756.t8 165.032
R24 a_4943_7756.n34 a_4943_7756.t43 165.032
R25 a_4943_7756.n33 a_4943_7756.t29 165.032
R26 a_4943_7756.n74 a_4943_7756.t18 165.032
R27 a_4943_7756.n86 a_4943_7756.t30 163.058
R28 a_4943_7756.n75 a_4943_7756.t11 163.058
R29 a_4943_7756.n77 a_4943_7756.t38 163.058
R30 a_4943_7756.n79 a_4943_7756.t10 163.058
R31 a_4943_7756.n81 a_4943_7756.t23 163.058
R32 a_4943_7756.n83 a_4943_7756.t22 163.058
R33 a_4943_7756.n31 a_4943_7756.t33 163.058
R34 a_4943_7756.n28 a_4943_7756.t41 163.058
R35 a_4943_7756.n26 a_4943_7756.t40 163.058
R36 a_4943_7756.n24 a_4943_7756.t39 163.058
R37 a_4943_7756.n22 a_4943_7756.t25 163.058
R38 a_4943_7756.n20 a_4943_7756.t14 163.058
R39 a_4943_7756.n88 a_4943_7756.t5 162.941
R40 a_4943_7756.n88 a_4943_7756.t0 162.941
R41 a_4943_7756.n75 a_4943_7756.t24 162.781
R42 a_4943_7756.n77 a_4943_7756.t12 162.781
R43 a_4943_7756.n79 a_4943_7756.t21 162.781
R44 a_4943_7756.n81 a_4943_7756.t34 162.781
R45 a_4943_7756.n83 a_4943_7756.t32 162.781
R46 a_4943_7756.n28 a_4943_7756.t17 162.781
R47 a_4943_7756.n26 a_4943_7756.t15 162.781
R48 a_4943_7756.n24 a_4943_7756.t13 162.781
R49 a_4943_7756.n22 a_4943_7756.t35 162.781
R50 a_4943_7756.n20 a_4943_7756.t26 162.781
R51 a_4943_7756.t5 a_4943_7756.n87 162.639
R52 a_4943_7756.n30 a_4943_7756.t0 162.639
R53 a_4943_7756.n54 a_4943_7756.t2 130.75
R54 a_4943_7756.n54 a_4943_7756.t4 91.3557
R55 a_4943_7756.n71 a_4943_7756.n70 86.5152
R56 a_4943_7756.n91 a_4943_7756.n4 86.5152
R57 a_4943_7756.n69 a_4943_7756.n53 30.3012
R58 a_4943_7756.n46 a_4943_7756.n45 24.8476
R59 a_4943_7756.n12 a_4943_7756.n1 24.8476
R60 a_4943_7756.n10 a_4943_7756.n5 24.8476
R61 a_4943_7756.n55 a_4943_7756.n47 23.3417
R62 a_4943_7756.n14 a_4943_7756.n3 23.3417
R63 a_4943_7756.n8 a_4943_7756.n0 23.3417
R64 a_4943_7756.n72 a_4943_7756.n71 22.0256
R65 a_4943_7756.n57 a_4943_7756.n48 21.8358
R66 a_4943_7756.n16 a_4943_7756.n2 21.8358
R67 a_4943_7756.n90 a_4943_7756.n6 21.8358
R68 a_4943_7756.n59 a_4943_7756.n49 20.3299
R69 a_4943_7756.n61 a_4943_7756.n50 18.824
R70 a_4943_7756.n63 a_4943_7756.n51 17.3181
R71 a_4943_7756.n70 a_4943_7756.n69 16.3559
R72 a_4943_7756.n65 a_4943_7756.n52 15.8123
R73 a_4943_7756.n18 a_4943_7756.n2 14.5711
R74 a_4943_7756.n90 a_4943_7756.n89 14.5711
R75 a_4943_7756.n71 a_4943_7756.n45 12.7256
R76 a_4943_7756.n12 a_4943_7756.n4 12.7256
R77 a_4943_7756.n10 a_4943_7756.n4 12.7256
R78 a_4943_7756.n53 a_4943_7756.n52 11.2946
R79 a_4943_7756.n65 a_4943_7756.n51 9.78874
R80 a_4943_7756.n45 a_4943_7756.n44 9.3005
R81 a_4943_7756.n56 a_4943_7756.n55 9.3005
R82 a_4943_7756.n58 a_4943_7756.n57 9.3005
R83 a_4943_7756.n60 a_4943_7756.n59 9.3005
R84 a_4943_7756.n62 a_4943_7756.n61 9.3005
R85 a_4943_7756.n64 a_4943_7756.n63 9.3005
R86 a_4943_7756.n66 a_4943_7756.n65 9.3005
R87 a_4943_7756.n67 a_4943_7756.n53 9.3005
R88 a_4943_7756.n13 a_4943_7756.n12 9.3005
R89 a_4943_7756.n15 a_4943_7756.n14 9.3005
R90 a_4943_7756.n17 a_4943_7756.n16 9.3005
R91 a_4943_7756.n11 a_4943_7756.n10 9.3005
R92 a_4943_7756.n9 a_4943_7756.n8 9.3005
R93 a_4943_7756.n7 a_4943_7756.n6 9.3005
R94 a_4943_7756.n63 a_4943_7756.n50 8.28285
R95 a_4943_7756.n61 a_4943_7756.n49 6.77697
R96 a_4943_7756.t1 a_4943_7756.n91 5.8005
R97 a_4943_7756.n91 a_4943_7756.t6 5.8005
R98 a_4943_7756.n73 a_4943_7756.n43 5.72243
R99 a_4943_7756.n59 a_4943_7756.n48 5.27109
R100 a_4943_7756.n73 a_4943_7756.n72 4.70369
R101 a_4943_7756.n74 a_4943_7756.n73 4.58132
R102 a_4943_7756.n57 a_4943_7756.n47 3.76521
R103 a_4943_7756.n16 a_4943_7756.n3 3.76521
R104 a_4943_7756.n6 a_4943_7756.n0 3.76521
R105 a_4943_7756.n70 a_4943_7756.t7 2.48621
R106 a_4943_7756.n70 a_4943_7756.t3 2.48621
R107 a_4943_7756.n69 a_4943_7756.n68 2.36936
R108 a_4943_7756.n55 a_4943_7756.n46 2.25932
R109 a_4943_7756.n14 a_4943_7756.n1 2.25932
R110 a_4943_7756.n8 a_4943_7756.n5 2.25932
R111 a_4943_7756.n76 a_4943_7756.n75 2.25162
R112 a_4943_7756.n78 a_4943_7756.n77 2.25162
R113 a_4943_7756.n80 a_4943_7756.n79 2.25162
R114 a_4943_7756.n82 a_4943_7756.n81 2.25162
R115 a_4943_7756.n84 a_4943_7756.n83 2.25162
R116 a_4943_7756.n32 a_4943_7756.n31 2.25162
R117 a_4943_7756.n29 a_4943_7756.n28 2.25162
R118 a_4943_7756.n27 a_4943_7756.n26 2.25162
R119 a_4943_7756.n25 a_4943_7756.n24 2.25162
R120 a_4943_7756.n23 a_4943_7756.n22 2.25162
R121 a_4943_7756.n21 a_4943_7756.n20 2.25162
R122 a_4943_7756.n86 a_4943_7756.n85 2.25162
R123 a_4943_7756.n34 a_4943_7756.n33 0.574917
R124 a_4943_7756.n35 a_4943_7756.n34 0.574917
R125 a_4943_7756.n36 a_4943_7756.n35 0.574917
R126 a_4943_7756.n37 a_4943_7756.n36 0.574917
R127 a_4943_7756.n38 a_4943_7756.n37 0.574917
R128 a_4943_7756.n39 a_4943_7756.n38 0.574917
R129 a_4943_7756.n40 a_4943_7756.n39 0.574917
R130 a_4943_7756.n41 a_4943_7756.n40 0.574917
R131 a_4943_7756.n42 a_4943_7756.n41 0.574917
R132 a_4943_7756.n43 a_4943_7756.n42 0.574917
R133 a_4943_7756.n23 a_4943_7756.n21 0.574917
R134 a_4943_7756.n25 a_4943_7756.n23 0.574917
R135 a_4943_7756.n27 a_4943_7756.n25 0.574917
R136 a_4943_7756.n29 a_4943_7756.n27 0.574917
R137 a_4943_7756.n32 a_4943_7756.n29 0.574917
R138 a_4943_7756.n85 a_4943_7756.n32 0.574917
R139 a_4943_7756.n85 a_4943_7756.n84 0.574917
R140 a_4943_7756.n84 a_4943_7756.n82 0.574917
R141 a_4943_7756.n82 a_4943_7756.n80 0.574917
R142 a_4943_7756.n80 a_4943_7756.n78 0.574917
R143 a_4943_7756.n78 a_4943_7756.n76 0.574917
R144 a_4943_7756.n76 a_4943_7756.n74 0.574917
R145 a_4943_7756.n68 a_4943_7756.n54 0.320353
R146 a_4943_7756.n30 a_4943_7756.n19 0.302413
R147 a_4943_7756.n87 a_4943_7756.n19 0.302413
R148 a_4943_7756.n19 a_4943_7756.n18 0.217891
R149 a_4943_7756.n89 a_4943_7756.n88 0.217891
R150 a_4943_7756.n68 a_4943_7756.n67 0.196152
R151 a_4943_7756.n67 a_4943_7756.n66 0.196152
R152 a_4943_7756.n66 a_4943_7756.n64 0.196152
R153 a_4943_7756.n64 a_4943_7756.n62 0.196152
R154 a_4943_7756.n62 a_4943_7756.n60 0.196152
R155 a_4943_7756.n60 a_4943_7756.n58 0.196152
R156 a_4943_7756.n58 a_4943_7756.n56 0.196152
R157 a_4943_7756.n56 a_4943_7756.n44 0.196152
R158 a_4943_7756.n72 a_4943_7756.n44 0.196152
R159 a_4943_7756.n18 a_4943_7756.n17 0.196152
R160 a_4943_7756.n17 a_4943_7756.n15 0.196152
R161 a_4943_7756.n15 a_4943_7756.n13 0.196152
R162 a_4943_7756.n13 a_4943_7756.n11 0.196152
R163 a_4943_7756.n11 a_4943_7756.n9 0.196152
R164 a_4943_7756.n9 a_4943_7756.n7 0.196152
R165 a_4943_7756.n89 a_4943_7756.n7 0.196152
R166 a_4943_7756.n31 a_4943_7756.n30 0.142018
R167 a_4943_7756.n87 a_4943_7756.n86 0.142018
R168 VSS.n1049 VSS.n305 4887.33
R169 VSS.n248 VSS.n236 1321.06
R170 VSS.n2248 VSS.n2159 1321.06
R171 VSS.n2315 VSS.n2314 1321.06
R172 VSS.n245 VSS.n234 1321.06
R173 VSS.n2142 VSS.n564 1268.91
R174 VSS.n2117 VSS.n582 1268.91
R175 VSS.n652 VSS.n562 1268.91
R176 VSS.n2074 VSS.n584 1268.91
R177 VSS.n1726 VSS.n810 1268.91
R178 VSS.n2296 VSS.n339 1268.91
R179 VSS.n1779 VSS.n1714 1268.91
R180 VSS.n2253 VSS.n2252 1268.91
R181 VSS.n1635 VSS.n957 1268.91
R182 VSS.n2052 VSS.n737 1268.91
R183 VSS.n1592 VSS.n1591 1268.91
R184 VSS.n2054 VSS.n733 1268.91
R185 VSS.n1148 VSS.n1051 1182
R186 VSS.n2150 VSS.n368 1182
R187 VSS.n1073 VSS.n1047 1182
R188 VSS.n2152 VSS.n366 1182
R189 VSS.n1232 VSS.n1018 1182
R190 VSS.n1989 VSS.n889 1182
R191 VSS.n1803 VSS.n886 1182
R192 VSS.n1429 VSS.n1028 1182
R193 VSS.n1946 VSS.n1945 996.588
R194 VSS.n1898 VSS.n1897 602.588
R195 VSS.n1850 VSS.n1849 602.588
R196 VSS.n245 VSS.n244 585
R197 VSS.n246 VSS.n245 585
R198 VSS.n243 VSS.n240 585
R199 VSS.n242 VSS.n241 585
R200 VSS.n238 VSS.n237 585
R201 VSS.n249 VSS.n248 585
R202 VSS.n2368 VSS.n2367 585
R203 VSS.n2369 VSS.n2368 585
R204 VSS.n301 VSS.n300 585
R205 VSS.n2370 VSS.n301 585
R206 VSS.n2373 VSS.n2372 585
R207 VSS.n2372 VSS.n2371 585
R208 VSS.n2374 VSS.n299 585
R209 VSS.n299 VSS.n298 585
R210 VSS.n2376 VSS.n2375 585
R211 VSS.n2377 VSS.n2376 585
R212 VSS.n294 VSS.n293 585
R213 VSS.n2378 VSS.n294 585
R214 VSS.n2381 VSS.n2380 585
R215 VSS.n2380 VSS.n2379 585
R216 VSS.n2382 VSS.n208 585
R217 VSS.n208 VSS.n206 585
R218 VSS.n2384 VSS.n2383 585
R219 VSS.n2385 VSS.n2384 585
R220 VSS.n292 VSS.n207 585
R221 VSS.n207 VSS.n205 585
R222 VSS.n291 VSS.n290 585
R223 VSS.n290 VSS.n289 585
R224 VSS.n210 VSS.n209 585
R225 VSS.n211 VSS.n210 585
R226 VSS.n282 VSS.n281 585
R227 VSS.n283 VSS.n282 585
R228 VSS.n280 VSS.n216 585
R229 VSS.n216 VSS.n215 585
R230 VSS.n279 VSS.n278 585
R231 VSS.n278 VSS.n277 585
R232 VSS.n218 VSS.n217 585
R233 VSS.n219 VSS.n218 585
R234 VSS.n270 VSS.n269 585
R235 VSS.n271 VSS.n270 585
R236 VSS.n268 VSS.n224 585
R237 VSS.n224 VSS.n223 585
R238 VSS.n267 VSS.n266 585
R239 VSS.n266 VSS.n265 585
R240 VSS.n226 VSS.n225 585
R241 VSS.n227 VSS.n226 585
R242 VSS.n258 VSS.n257 585
R243 VSS.n259 VSS.n258 585
R244 VSS.n256 VSS.n232 585
R245 VSS.n232 VSS.n231 585
R246 VSS.n255 VSS.n254 585
R247 VSS.n254 VSS.n253 585
R248 VSS.n234 VSS.n233 585
R249 VSS.n235 VSS.n234 585
R250 VSS.n250 VSS.n236 585
R251 VSS.n236 VSS.n235 585
R252 VSS.n252 VSS.n251 585
R253 VSS.n253 VSS.n252 585
R254 VSS.n230 VSS.n229 585
R255 VSS.n231 VSS.n230 585
R256 VSS.n261 VSS.n260 585
R257 VSS.n260 VSS.n259 585
R258 VSS.n262 VSS.n228 585
R259 VSS.n228 VSS.n227 585
R260 VSS.n264 VSS.n263 585
R261 VSS.n265 VSS.n264 585
R262 VSS.n222 VSS.n221 585
R263 VSS.n223 VSS.n222 585
R264 VSS.n273 VSS.n272 585
R265 VSS.n272 VSS.n271 585
R266 VSS.n274 VSS.n220 585
R267 VSS.n220 VSS.n219 585
R268 VSS.n276 VSS.n275 585
R269 VSS.n277 VSS.n276 585
R270 VSS.n214 VSS.n213 585
R271 VSS.n215 VSS.n214 585
R272 VSS.n285 VSS.n284 585
R273 VSS.n284 VSS.n283 585
R274 VSS.n286 VSS.n212 585
R275 VSS.n212 VSS.n211 585
R276 VSS.n288 VSS.n287 585
R277 VSS.n289 VSS.n288 585
R278 VSS.n203 VSS.n201 585
R279 VSS.n205 VSS.n203 585
R280 VSS.n2387 VSS.n2386 585
R281 VSS.n2386 VSS.n2385 585
R282 VSS.n204 VSS.n202 585
R283 VSS.n206 VSS.n204 585
R284 VSS.n2181 VSS.n295 585
R285 VSS.n2379 VSS.n295 585
R286 VSS.n2182 VSS.n296 585
R287 VSS.n2378 VSS.n296 585
R288 VSS.n2183 VSS.n297 585
R289 VSS.n2377 VSS.n297 585
R290 VSS.n2185 VSS.n2184 585
R291 VSS.n2184 VSS.n298 585
R292 VSS.n2186 VSS.n302 585
R293 VSS.n2371 VSS.n302 585
R294 VSS.n2187 VSS.n303 585
R295 VSS.n2370 VSS.n303 585
R296 VSS.n2188 VSS.n304 585
R297 VSS.n2369 VSS.n304 585
R298 VSS.n2240 VSS.n2239 585
R299 VSS.n2238 VSS.n2180 585
R300 VSS.n2237 VSS.n2179 585
R301 VSS.n2242 VSS.n2179 585
R302 VSS.n2236 VSS.n2235 585
R303 VSS.n2234 VSS.n2233 585
R304 VSS.n2232 VSS.n2231 585
R305 VSS.n2230 VSS.n2229 585
R306 VSS.n2228 VSS.n2227 585
R307 VSS.n2226 VSS.n2225 585
R308 VSS.n2224 VSS.n2223 585
R309 VSS.n2222 VSS.n2221 585
R310 VSS.n2220 VSS.n2219 585
R311 VSS.n2218 VSS.n2217 585
R312 VSS.n2216 VSS.n2215 585
R313 VSS.n2214 VSS.n2213 585
R314 VSS.n2212 VSS.n2211 585
R315 VSS.n2210 VSS.n2209 585
R316 VSS.n2208 VSS.n2207 585
R317 VSS.n2206 VSS.n2205 585
R318 VSS.n2204 VSS.n2203 585
R319 VSS.n2202 VSS.n2201 585
R320 VSS.n2200 VSS.n2199 585
R321 VSS.n2198 VSS.n2197 585
R322 VSS.n2196 VSS.n2195 585
R323 VSS.n2194 VSS.n2193 585
R324 VSS.n2192 VSS.n2191 585
R325 VSS.n2190 VSS.n2189 585
R326 VSS.n2165 VSS.n2164 585
R327 VSS.n2245 VSS.n2244 585
R328 VSS.n2246 VSS.n2159 585
R329 VSS.n2242 VSS.n2159 585
R330 VSS.n2316 VSS.n2315 585
R331 VSS.n2317 VSS.n328 585
R332 VSS.n2319 VSS.n2318 585
R333 VSS.n2321 VSS.n326 585
R334 VSS.n2323 VSS.n2322 585
R335 VSS.n2324 VSS.n325 585
R336 VSS.n2326 VSS.n2325 585
R337 VSS.n2328 VSS.n323 585
R338 VSS.n2330 VSS.n2329 585
R339 VSS.n2331 VSS.n322 585
R340 VSS.n2333 VSS.n2332 585
R341 VSS.n2335 VSS.n320 585
R342 VSS.n2337 VSS.n2336 585
R343 VSS.n2338 VSS.n319 585
R344 VSS.n2340 VSS.n2339 585
R345 VSS.n2342 VSS.n317 585
R346 VSS.n2344 VSS.n2343 585
R347 VSS.n2345 VSS.n316 585
R348 VSS.n2347 VSS.n2346 585
R349 VSS.n2349 VSS.n314 585
R350 VSS.n2351 VSS.n2350 585
R351 VSS.n2352 VSS.n313 585
R352 VSS.n2354 VSS.n2353 585
R353 VSS.n2356 VSS.n311 585
R354 VSS.n2358 VSS.n2357 585
R355 VSS.n2359 VSS.n310 585
R356 VSS.n2361 VSS.n2360 585
R357 VSS.n2363 VSS.n307 585
R358 VSS.n2365 VSS.n2364 585
R359 VSS.n2366 VSS.n306 585
R360 VSS.n2148 VSS.n368 585
R361 VSS.n2147 VSS.n2146 585
R362 VSS.n370 VSS.n369 585
R363 VSS.n2144 VSS.n370 585
R364 VSS.n391 VSS.n390 585
R365 VSS.n393 VSS.n392 585
R366 VSS.n395 VSS.n394 585
R367 VSS.n397 VSS.n396 585
R368 VSS.n399 VSS.n398 585
R369 VSS.n401 VSS.n400 585
R370 VSS.n403 VSS.n402 585
R371 VSS.n405 VSS.n404 585
R372 VSS.n407 VSS.n406 585
R373 VSS.n409 VSS.n408 585
R374 VSS.n411 VSS.n410 585
R375 VSS.n413 VSS.n412 585
R376 VSS.n415 VSS.n414 585
R377 VSS.n417 VSS.n416 585
R378 VSS.n419 VSS.n418 585
R379 VSS.n421 VSS.n420 585
R380 VSS.n423 VSS.n422 585