* NGSPICE file created from ttsky25_two_stage_opamp.ext - technology: sky130A

.subckt ttsky25_two_stage_opamp VDD IBIAS VOUT VN VP EN VSS
X0 VSS.t129 VSS.t128 VSS.t129 VSS.t47 sky130_fd_pr__nfet_01v8_lvt ad=1.015 pd=7.29 as=0 ps=0 w=7 l=1
X1 VDD.t74 a_2479_7336.t18 VOUT.t20 VDD.t2 sky130_fd_pr__pfet_01v8 ad=0.145 pd=1.29 as=0.145 ps=1.29 w=1 l=0.4
X2 VSS.t132 a_2080_2896.t5 a_2080_2896.t6 VSS.t14 sky130_fd_pr__nfet_01v8_lvt ad=0.435 pd=3.29 as=0.435 ps=3.29 w=3 l=1
X3 VDD.t73 a_2479_7336.t19 VOUT.t27 VDD.t31 sky130_fd_pr__pfet_01v8 ad=0.145 pd=1.29 as=0.145 ps=1.29 w=1 l=0.4
X4 VDD.t55 VDD.t54 VDD.t55 VDD.t50 sky130_fd_pr__pfet_01v8 ad=0.145 pd=1.29 as=0 ps=0 w=1 l=0.4
X5 VSS.t138 a_2080_2896.t8 a_4920_2896.t23 VSS.t58 sky130_fd_pr__nfet_01v8_lvt ad=0.435 pd=3.29 as=0.435 ps=3.29 w=3 l=1
X6 VSS.t30 a_2080_2896.t9 a_4920_2896.t22 VSS.t0 sky130_fd_pr__nfet_01v8_lvt ad=0.435 pd=3.29 as=0.435 ps=3.29 w=3 l=1
X7 a_2479_7336.t16 a_2479_7336.t15 a_2479_7336.t16 VSS.t26 sky130_fd_pr__nfet_01v8_lvt ad=1.015 pd=7.29 as=0 ps=0 w=7 l=1
X8 VSS.t127 VSS.t126 VSS.t127 VSS.t24 sky130_fd_pr__nfet_01v8_lvt ad=1.015 pd=7.29 as=0 ps=0 w=7 l=1
X9 VDD.t53 VDD.t52 VDD.t53 VDD.t17 sky130_fd_pr__pfet_01v8 ad=0.145 pd=1.29 as=0 ps=0 w=1 l=0.4
X10 VDD.t72 a_2479_7336.t20 VOUT.t15 VDD.t28 sky130_fd_pr__pfet_01v8 ad=0.145 pd=1.29 as=0.145 ps=1.29 w=1 l=0.4
X11 VDD.t71 a_2479_7336.t21 VOUT.t25 VDD.t31 sky130_fd_pr__pfet_01v8 ad=0.145 pd=1.29 as=0.145 ps=1.29 w=1 l=0.4
X12 a_4920_2896.t21 a_2080_2896.t10 VSS.t135 VSS.t54 sky130_fd_pr__nfet_01v8_lvt ad=0.435 pd=3.29 as=0.435 ps=3.29 w=3 l=1
X13 a_2479_7336.t14 a_2479_7336.t12 a_2479_7336.t13 VSS.t16 sky130_fd_pr__nfet_01v8_lvt ad=2.03 pd=14.58 as=0 ps=0 w=7 l=1
X14 a_2479_7336.t4 VP.t0 a_2995_7336.t18 VSS.t17 sky130_fd_pr__nfet_01v8_lvt ad=1.015 pd=7.29 as=1.015 ps=7.29 w=7 l=1
X15 VSS.t36 a_2080_2896.t11 a_4920_2896.t20 VSS.t27 sky130_fd_pr__nfet_01v8_lvt ad=0.435 pd=3.29 as=0.435 ps=3.29 w=3 l=1
X16 VSS.t125 VSS.t124 VSS.t125 VSS.t88 sky130_fd_pr__nfet_01v8_lvt ad=0.435 pd=3.29 as=0 ps=0 w=3 l=1
X17 a_2995_7336.t6 VN.t0 a_2479_9004.t20 VSS.t5 sky130_fd_pr__nfet_01v8_lvt ad=1.015 pd=7.29 as=1.015 ps=7.29 w=7 l=1
X18 VDD.t70 a_2479_7336.t22 VOUT.t28 VDD.t28 sky130_fd_pr__pfet_01v8 ad=0.145 pd=1.29 as=0.145 ps=1.29 w=1 l=0.4
X19 a_2479_9004.t19 VN.t1 a_2995_7336.t19 VSS.t47 sky130_fd_pr__nfet_01v8_lvt ad=1.015 pd=7.29 as=1.015 ps=7.29 w=7 l=1
X20 VSS.t123 VSS.t122 VSS.t123 VSS.t85 sky130_fd_pr__nfet_01v8_lvt ad=0.435 pd=3.29 as=0 ps=0 w=3 l=1
X21 a_2479_9004.t12 a_2479_9004.t11 a_2479_9004.t12 VSS.t26 sky130_fd_pr__nfet_01v8_lvt ad=1.015 pd=7.29 as=0 ps=0 w=7 l=1
X22 VSS.t121 VSS.t120 VSS.t121 VSS.t52 sky130_fd_pr__nfet_01v8_lvt ad=0.435 pd=3.29 as=0 ps=0 w=3 l=1
X23 a_4920_2896.t19 a_2080_2896.t12 VSS.t40 VSS.t12 sky130_fd_pr__nfet_01v8_lvt ad=0.435 pd=3.29 as=0.435 ps=3.29 w=3 l=1
X24 a_2479_9004.t10 a_2479_9004.t8 a_2479_9004.t9 VSS.t16 sky130_fd_pr__nfet_01v8_lvt ad=2.03 pd=14.58 as=0 ps=0 w=7 l=1
X25 a_2479_9004.t18 VN.t2 a_2995_7336.t10 VSS.t17 sky130_fd_pr__nfet_01v8_lvt ad=1.015 pd=7.29 as=1.015 ps=7.29 w=7 l=1
X26 VSS.t45 a_2080_2896.t13 a_4920_2896.t18 VSS.t2 sky130_fd_pr__nfet_01v8_lvt ad=0.435 pd=3.29 as=0.435 ps=3.29 w=3 l=1
X27 VOUT.t26 a_2479_7336.t23 VDD.t69 VDD.t5 sky130_fd_pr__pfet_01v8 ad=0.145 pd=1.29 as=0.145 ps=1.29 w=1 l=0.4
X28 VSS.t119 VSS.t118 VSS.t119 VSS.t47 sky130_fd_pr__nfet_01v8_lvt ad=1.015 pd=7.29 as=0 ps=0 w=7 l=1
X29 VDD.t51 VDD.t49 VDD.t51 VDD.t50 sky130_fd_pr__pfet_01v8 ad=0.145 pd=1.29 as=0 ps=0 w=1 l=0.4
X30 a_2995_7336.t17 VP.t1 a_2479_7336.t1 VSS.t5 sky130_fd_pr__nfet_01v8_lvt ad=1.015 pd=7.29 as=1.015 ps=7.29 w=7 l=1
X31 VSS.t117 VSS.t116 VSS.t117 VSS.t6 sky130_fd_pr__nfet_01v8_lvt ad=1.015 pd=7.29 as=0 ps=0 w=7 l=1
X32 a_3758_2896.t11 a_2080_2896.t14 VSS.t131 VSS.t58 sky130_fd_pr__nfet_01v8_lvt ad=0.435 pd=3.29 as=0.435 ps=3.29 w=3 l=1
X33 a_4920_2896.t17 a_2080_2896.t15 VSS.t51 VSS.t10 sky130_fd_pr__nfet_01v8_lvt ad=0.435 pd=3.29 as=0.435 ps=3.29 w=3 l=1
X34 a_2479_7336.t11 VP.t2 a_2995_7336.t16 VSS.t47 sky130_fd_pr__nfet_01v8_lvt ad=1.015 pd=7.29 as=1.015 ps=7.29 w=7 l=1
X35 a_3758_2896.t10 a_2080_2896.t16 VSS.t33 VSS.t0 sky130_fd_pr__nfet_01v8_lvt ad=0.435 pd=3.29 as=0.435 ps=3.29 w=3 l=1
X36 VOUT.t24 a_2479_7336.t24 VDD.t68 VDD.t5 sky130_fd_pr__pfet_01v8 ad=0.145 pd=1.29 as=0.145 ps=1.29 w=1 l=0.4
X37 VSS.t137 a_2080_2896.t17 a_3758_2896.t9 VSS.t54 sky130_fd_pr__nfet_01v8_lvt ad=0.435 pd=3.29 as=0.435 ps=3.29 w=3 l=1
X38 a_4920_2896.t26 a_4920_2896.t25 a_4920_2896.t26 VSS.t22 sky130_fd_pr__nfet_01v8_lvt ad=1.015 pd=7.29 as=0 ps=0 w=7 l=1
X39 a_4920_2896.t16 a_2080_2896.t18 VSS.t29 VSS.t7 sky130_fd_pr__nfet_01v8_lvt ad=0.435 pd=3.29 as=0.435 ps=3.29 w=3 l=1
X40 a_3758_2896.t8 a_2080_2896.t19 VSS.t134 VSS.t27 sky130_fd_pr__nfet_01v8_lvt ad=0.435 pd=3.29 as=0.435 ps=3.29 w=3 l=1
X41 a_3758_2896.t7 a_2080_2896.t20 VSS.t133 VSS.t88 sky130_fd_pr__nfet_01v8_lvt ad=0.435 pd=3.29 as=0.435 ps=3.29 w=3 l=1
X42 a_4920_2896.t24 EN.t0 VOUT.t1 VSS.t23 sky130_fd_pr__nfet_01v8_lvt ad=1.015 pd=7.29 as=1.015 ps=7.29 w=7 l=1
X43 a_2995_7336.t15 VP.t3 a_2479_7336.t3 VSS.t6 sky130_fd_pr__nfet_01v8_lvt ad=1.015 pd=7.29 as=1.015 ps=7.29 w=7 l=1
X44 VDD.t8 a_2479_9004.t6 a_2479_9004.t7 VDD.t7 sky130_fd_pr__pfet_01v8 ad=0.145 pd=1.29 as=0.145 ps=1.29 w=1 l=0.4
X45 VOUT.t13 VOUT.t11 VOUT.t12 VSS.t46 sky130_fd_pr__nfet_01v8_lvt ad=2.03 pd=14.58 as=0 ps=0 w=7 l=1
X46 a_4920_2896.t15 a_2080_2896.t21 VSS.t39 VSS.t38 sky130_fd_pr__nfet_01v8_lvt ad=0.435 pd=3.29 as=0.435 ps=3.29 w=3 l=1
X47 VDD.t48 VDD.t47 VDD.t48 VDD.t20 sky130_fd_pr__pfet_01v8 ad=0.145 pd=1.29 as=0 ps=0 w=1 l=0.4
X48 VSS.t44 a_2080_2896.t22 a_4920_2896.t14 VSS.t42 sky130_fd_pr__nfet_01v8_lvt ad=0.435 pd=3.29 as=0.435 ps=3.29 w=3 l=1
X49 VDD.t46 VDD.t45 VDD.t46 VDD.t34 sky130_fd_pr__pfet_01v8 ad=0.145 pd=1.29 as=0 ps=0 w=1 l=0.4
X50 VSS.t115 VSS.t114 VSS.t115 VSS.t19 sky130_fd_pr__nfet_01v8_lvt ad=1.015 pd=7.29 as=0 ps=0 w=7 l=1
X51 VDD.t67 a_2479_7336.t25 VOUT.t19 VDD.t14 sky130_fd_pr__pfet_01v8 ad=0.145 pd=1.29 as=0.145 ps=1.29 w=1 l=0.4
X52 VSS.t113 VSS.t111 VSS.t112 VSS.t74 sky130_fd_pr__nfet_01v8_lvt ad=0.87 pd=6.58 as=0 ps=0 w=3 l=1
X53 VSS.t110 VSS.t109 VSS.t110 VSS.t6 sky130_fd_pr__nfet_01v8_lvt ad=1.015 pd=7.29 as=0 ps=0 w=7 l=1
X54 VOUT.t10 VOUT.t8 VOUT.t9 VDD.t10 sky130_fd_pr__pfet_01v8 ad=0.29 pd=2.58 as=0 ps=0 w=1 l=0.4
X55 VSS.t130 a_2080_2896.t23 a_4920_2896.t13 VSS.t34 sky130_fd_pr__nfet_01v8_lvt ad=0.435 pd=3.29 as=0.435 ps=3.29 w=3 l=1
X56 VOUT.t7 VOUT.t6 VOUT.t7 VDD.t14 sky130_fd_pr__pfet_01v8 ad=0.145 pd=1.29 as=0 ps=0 w=1 l=0.4
X57 a_2995_7336.t0 VN.t3 a_2479_9004.t17 VSS.t6 sky130_fd_pr__nfet_01v8_lvt ad=1.015 pd=7.29 as=1.015 ps=7.29 w=7 l=1
X58 VDD.t66 a_2479_7336.t26 VOUT.t16 VDD.t0 sky130_fd_pr__pfet_01v8 ad=0.145 pd=1.29 as=0.145 ps=1.29 w=1 l=0.4
X59 VSS.t108 VSS.t106 VSS.t107 VSS.t16 sky130_fd_pr__nfet_01v8_lvt ad=2.03 pd=14.58 as=0 ps=0 w=7 l=1
X60 VDD.t44 VDD.t42 VDD.t43 VDD.t10 sky130_fd_pr__pfet_01v8 ad=0.29 pd=2.58 as=0 ps=0 w=1 l=0.4
X61 a_2479_9004.t5 a_2479_9004.t4 VDD.t3 VDD.t2 sky130_fd_pr__pfet_01v8 ad=0.145 pd=1.29 as=0.145 ps=1.29 w=1 l=0.4
X62 C1.t1 VOUT.t0 sky130_fd_pr__cap_mim_m3_1 l=25.5 w=25.5
X63 VDD.t65 a_2479_7336.t27 VOUT.t14 VDD.t0 sky130_fd_pr__pfet_01v8 ad=0.145 pd=1.29 as=0.145 ps=1.29 w=1 l=0.4
X64 VSS.t8 a_2080_2896.t24 a_3758_2896.t6 VSS.t7 sky130_fd_pr__nfet_01v8_lvt ad=0.435 pd=3.29 as=0.435 ps=3.29 w=3 l=1
X65 a_4920_2896.t12 a_2080_2896.t25 VSS.t15 VSS.t14 sky130_fd_pr__nfet_01v8_lvt ad=0.435 pd=3.29 as=0.435 ps=3.29 w=3 l=1
X66 VSS.t105 VSS.t104 VSS.t105 VSS.t19 sky130_fd_pr__nfet_01v8_lvt ad=1.015 pd=7.29 as=0 ps=0 w=7 l=1
X67 VOUT.t17 a_2479_7336.t28 VDD.t64 VDD.t17 sky130_fd_pr__pfet_01v8 ad=0.145 pd=1.29 as=0.145 ps=1.29 w=1 l=0.4
X68 VDD.t76 a_2479_9004.t21 a_2479_7336.t17 VDD.t7 sky130_fd_pr__pfet_01v8 ad=0.145 pd=1.29 as=0.145 ps=1.29 w=1 l=0.4
X69 VDD.t41 VDD.t40 VDD.t41 VDD.t31 sky130_fd_pr__pfet_01v8 ad=0.145 pd=1.29 as=0 ps=0 w=1 l=0.4
X70 VSS.t103 VSS.t102 VSS.t103 VSS.t24 sky130_fd_pr__nfet_01v8_lvt ad=1.015 pd=7.29 as=0 ps=0 w=7 l=1
X71 VDD.t39 VDD.t38 VDD.t39 VDD.t20 sky130_fd_pr__pfet_01v8 ad=0.145 pd=1.29 as=0 ps=0 w=1 l=0.4
X72 VOUT.t23 a_2479_7336.t29 VDD.t63 VDD.t17 sky130_fd_pr__pfet_01v8 ad=0.145 pd=1.29 as=0.145 ps=1.29 w=1 l=0.4
X73 VSS.t50 a_2080_2896.t26 a_3758_2896.t5 VSS.t38 sky130_fd_pr__nfet_01v8_lvt ad=0.435 pd=3.29 as=0.435 ps=3.29 w=3 l=1
X74 VSS.t101 VSS.t100 VSS.t101 VSS.t5 sky130_fd_pr__nfet_01v8_lvt ad=1.015 pd=7.29 as=0 ps=0 w=7 l=1
X75 VDD.t37 VDD.t36 VDD.t37 VDD.t28 sky130_fd_pr__pfet_01v8 ad=0.145 pd=1.29 as=0 ps=0 w=1 l=0.4
X76 VSS.t99 VSS.t98 VSS.t99 VSS.t25 sky130_fd_pr__nfet_01v8_lvt ad=1.015 pd=7.29 as=0 ps=0 w=7 l=1
X77 VDD.t35 VDD.t33 VDD.t35 VDD.t34 sky130_fd_pr__pfet_01v8 ad=0.145 pd=1.29 as=0 ps=0 w=1 l=0.4
X78 a_3758_2896.t4 a_2080_2896.t27 VSS.t136 VSS.t42 sky130_fd_pr__nfet_01v8_lvt ad=0.435 pd=3.29 as=0.435 ps=3.29 w=3 l=1
X79 VSS.t97 VSS.t96 VSS.t97 VSS.t18 sky130_fd_pr__nfet_01v8_lvt ad=1.015 pd=7.29 as=0 ps=0 w=7 l=1
X80 VSS.t95 VSS.t94 VSS.t95 VSS.t18 sky130_fd_pr__nfet_01v8_lvt ad=1.015 pd=7.29 as=0 ps=0 w=7 l=1
X81 VSS.t93 VSS.t92 VSS.t93 VSS.t85 sky130_fd_pr__nfet_01v8_lvt ad=0.435 pd=3.29 as=0 ps=0 w=3 l=1
X82 a_2995_7336.t14 VP.t4 a_2479_7336.t8 VSS.t19 sky130_fd_pr__nfet_01v8_lvt ad=1.015 pd=7.29 as=1.015 ps=7.29 w=7 l=1
X83 VSS.t91 VSS.t90 VSS.t91 VSS.t52 sky130_fd_pr__nfet_01v8_lvt ad=0.435 pd=3.29 as=0 ps=0 w=3 l=1
X84 a_4920_2896.t11 a_2080_2896.t28 VSS.t13 VSS.t12 sky130_fd_pr__nfet_01v8_lvt ad=0.435 pd=3.29 as=0.435 ps=3.29 w=3 l=1
X85 a_2479_7336.t6 VP.t5 a_2995_7336.t13 VSS.t24 sky130_fd_pr__nfet_01v8_lvt ad=1.015 pd=7.29 as=1.015 ps=7.29 w=7 l=1
X86 a_2080_2896.t2 a_2080_2896.t0 a_2080_2896.t1 VSS.t31 sky130_fd_pr__nfet_01v8_lvt ad=2.03 pd=14.58 as=0 ps=0 w=7 l=1
X87 a_2479_7336.t2 a_2479_9004.t22 VDD.t4 VDD.t2 sky130_fd_pr__pfet_01v8 ad=0.145 pd=1.29 as=0.145 ps=1.29 w=1 l=0.4
X88 VSS.t3 a_2080_2896.t29 a_4920_2896.t10 VSS.t2 sky130_fd_pr__nfet_01v8_lvt ad=0.435 pd=3.29 as=0.435 ps=3.29 w=3 l=1
X89 a_2995_7336.t3 VN.t4 a_2479_9004.t16 VSS.t25 sky130_fd_pr__nfet_01v8_lvt ad=1.015 pd=7.29 as=1.015 ps=7.29 w=7 l=1
X90 VOUT.t18 a_2479_7336.t30 VDD.t62 VDD.t50 sky130_fd_pr__pfet_01v8 ad=0.145 pd=1.29 as=0.145 ps=1.29 w=1 l=0.4
X91 a_4920_2896.t9 a_2080_2896.t30 VSS.t11 VSS.t10 sky130_fd_pr__nfet_01v8_lvt ad=0.435 pd=3.29 as=0.435 ps=3.29 w=3 l=1
X92 a_2479_9004.t15 VN.t5 a_2995_7336.t2 VSS.t18 sky130_fd_pr__nfet_01v8_lvt ad=1.015 pd=7.29 as=1.015 ps=7.29 w=7 l=1
X93 VDD.t56 a_2479_9004.t23 a_2479_7336.t10 VDD.t5 sky130_fd_pr__pfet_01v8 ad=0.145 pd=1.29 as=0.145 ps=1.29 w=1 l=0.4
X94 VDD.t32 VDD.t30 VDD.t32 VDD.t31 sky130_fd_pr__pfet_01v8 ad=0.145 pd=1.29 as=0 ps=0 w=1 l=0.4
X95 VSS.t59 a_2080_2896.t31 a_4920_2896.t8 VSS.t58 sky130_fd_pr__nfet_01v8_lvt ad=0.435 pd=3.29 as=0.435 ps=3.29 w=3 l=1
X96 VOUT.t31 a_2479_7336.t31 VDD.t61 VDD.t50 sky130_fd_pr__pfet_01v8 ad=0.145 pd=1.29 as=0.145 ps=1.29 w=1 l=0.4
X97 VSS.t1 a_2080_2896.t32 a_4920_2896.t7 VSS.t0 sky130_fd_pr__nfet_01v8_lvt ad=0.435 pd=3.29 as=0.435 ps=3.29 w=3 l=1
X98 a_2995_7336.t1 VN.t6 a_2479_9004.t14 VSS.t19 sky130_fd_pr__nfet_01v8_lvt ad=1.015 pd=7.29 as=1.015 ps=7.29 w=7 l=1
X99 VDD.t29 VDD.t27 VDD.t29 VDD.t28 sky130_fd_pr__pfet_01v8 ad=0.145 pd=1.29 as=0 ps=0 w=1 l=0.4
X100 a_4920_2896.t6 a_2080_2896.t33 VSS.t55 VSS.t54 sky130_fd_pr__nfet_01v8_lvt ad=0.435 pd=3.29 as=0.435 ps=3.29 w=3 l=1
X101 a_2479_9004.t13 VN.t7 a_2995_7336.t5 VSS.t24 sky130_fd_pr__nfet_01v8_lvt ad=1.015 pd=7.29 as=1.015 ps=7.29 w=7 l=1
X102 VSS.t28 a_2080_2896.t34 a_4920_2896.t5 VSS.t27 sky130_fd_pr__nfet_01v8_lvt ad=0.435 pd=3.29 as=0.435 ps=3.29 w=3 l=1
X103 VSS.t89 VSS.t87 VSS.t89 VSS.t88 sky130_fd_pr__nfet_01v8_lvt ad=0.435 pd=3.29 as=0 ps=0 w=3 l=1
X104 a_2995_7336.t12 VP.t6 a_2479_7336.t7 VSS.t25 sky130_fd_pr__nfet_01v8_lvt ad=1.015 pd=7.29 as=1.015 ps=7.29 w=7 l=1
X105 a_2479_7336.t5 VP.t7 a_2995_7336.t11 VSS.t18 sky130_fd_pr__nfet_01v8_lvt ad=1.015 pd=7.29 as=1.015 ps=7.29 w=7 l=1
X106 VSS.t86 VSS.t84 VSS.t86 VSS.t85 sky130_fd_pr__nfet_01v8_lvt ad=0.435 pd=3.29 as=0 ps=0 w=3 l=1
X107 VSS.t53 a_2080_2896.t35 a_3758_2896.t3 VSS.t52 sky130_fd_pr__nfet_01v8_lvt ad=0.435 pd=3.29 as=0.435 ps=3.29 w=3 l=1
X108 VSS.t57 a_2080_2896.t36 a_3758_2896.t2 VSS.t12 sky130_fd_pr__nfet_01v8_lvt ad=0.435 pd=3.29 as=0.435 ps=3.29 w=3 l=1
X109 VSS.t83 VSS.t81 VSS.t82 VSS.t74 sky130_fd_pr__nfet_01v8_lvt ad=0.87 pd=6.58 as=0 ps=0 w=3 l=1
X110 a_3758_2896.t1 a_2080_2896.t37 VSS.t56 VSS.t2 sky130_fd_pr__nfet_01v8_lvt ad=0.435 pd=3.29 as=0.435 ps=3.29 w=3 l=1
X111 VDD.t6 a_2479_9004.t2 a_2479_9004.t3 VDD.t5 sky130_fd_pr__pfet_01v8 ad=0.145 pd=1.29 as=0.145 ps=1.29 w=1 l=0.4
X112 VSS.t61 a_2080_2896.t38 a_3758_2896.t0 VSS.t10 sky130_fd_pr__nfet_01v8_lvt ad=0.435 pd=3.29 as=0.435 ps=3.29 w=3 l=1
X113 IBIAS.t1 IBIAS.t0 IBIAS.t1 VSS.t48 sky130_fd_pr__nfet_01v8_lvt ad=1.015 pd=7.29 as=0 ps=0 w=7 l=1
X114 VSS.t80 VSS.t79 VSS.t80 VSS.t17 sky130_fd_pr__nfet_01v8_lvt ad=1.015 pd=7.29 as=0 ps=0 w=7 l=1
X115 VDD.t26 VDD.t25 VDD.t26 VDD.t14 sky130_fd_pr__pfet_01v8 ad=0.145 pd=1.29 as=0 ps=0 w=1 l=0.4
X116 VSS.t35 a_2080_2896.t39 a_4920_2896.t4 VSS.t34 sky130_fd_pr__nfet_01v8_lvt ad=0.435 pd=3.29 as=0.435 ps=3.29 w=3 l=1
X117 VDD.t24 VDD.t22 VDD.t23 VDD.t10 sky130_fd_pr__pfet_01v8 ad=0.29 pd=2.58 as=0 ps=0 w=1 l=0.4
X118 IBIAS.t2 EN.t1 a_2080_2896.t7 VSS.t20 sky130_fd_pr__nfet_01v8_lvt ad=1.015 pd=7.29 as=1.015 ps=7.29 w=7 l=1
X119 VSS.t78 VSS.t77 VSS.t78 VSS.t25 sky130_fd_pr__nfet_01v8_lvt ad=1.015 pd=7.29 as=0 ps=0 w=7 l=1
X120 a_2479_7336.t0 a_2479_9004.t24 VDD.t1 VDD.t0 sky130_fd_pr__pfet_01v8 ad=0.145 pd=1.29 as=0.145 ps=1.29 w=1 l=0.4
X121 a_4920_2896.t3 a_2080_2896.t40 VSS.t21 VSS.t14 sky130_fd_pr__nfet_01v8_lvt ad=0.435 pd=3.29 as=0.435 ps=3.29 w=3 l=1
X122 a_4920_2896.t2 a_2080_2896.t41 VSS.t60 VSS.t7 sky130_fd_pr__nfet_01v8_lvt ad=0.435 pd=3.29 as=0.435 ps=3.29 w=3 l=1
X123 VOUT.t30 a_2479_7336.t32 VDD.t60 VDD.t7 sky130_fd_pr__pfet_01v8 ad=0.145 pd=1.29 as=0.145 ps=1.29 w=1 l=0.4
X124 a_2479_7336.t9 C1.t0 VSS.t32 sky130_fd_pr__res_xhigh_po_1p41 l=14
X125 VDD.t21 VDD.t19 VDD.t21 VDD.t20 sky130_fd_pr__pfet_01v8 ad=0.145 pd=1.29 as=0 ps=0 w=1 l=0.4
X126 VDD.t18 VDD.t16 VDD.t18 VDD.t17 sky130_fd_pr__pfet_01v8 ad=0.145 pd=1.29 as=0 ps=0 w=1 l=0.4
X127 a_3758_2896.t14 a_3758_2896.t13 a_3758_2896.t14 VSS.t4 sky130_fd_pr__nfet_01v8_lvt ad=1.015 pd=7.29 as=0 ps=0 w=7 l=1
X128 VOUT.t29 a_2479_7336.t33 VDD.t59 VDD.t7 sky130_fd_pr__pfet_01v8 ad=0.145 pd=1.29 as=0.145 ps=1.29 w=1 l=0.4
X129 VOUT.t5 VOUT.t4 VOUT.t5 VDD.t34 sky130_fd_pr__pfet_01v8 ad=0.145 pd=1.29 as=0 ps=0 w=1 l=0.4
X130 a_4920_2896.t1 a_2080_2896.t42 VSS.t49 VSS.t38 sky130_fd_pr__nfet_01v8_lvt ad=0.435 pd=3.29 as=0.435 ps=3.29 w=3 l=1
X131 a_3758_2896.t12 EN.t2 a_2995_7336.t4 VSS.t37 sky130_fd_pr__nfet_01v8_lvt ad=1.015 pd=7.29 as=1.015 ps=7.29 w=7 l=1
X132 VSS.t43 a_2080_2896.t43 a_4920_2896.t0 VSS.t42 sky130_fd_pr__nfet_01v8_lvt ad=0.435 pd=3.29 as=0.435 ps=3.29 w=3 l=1
X133 VOUT.t3 VOUT.t2 VOUT.t3 VDD.t20 sky130_fd_pr__pfet_01v8 ad=0.145 pd=1.29 as=0 ps=0 w=1 l=0.4
X134 VOUT.t21 a_2479_7336.t34 VDD.t58 VDD.t34 sky130_fd_pr__pfet_01v8 ad=0.145 pd=1.29 as=0.145 ps=1.29 w=1 l=0.4
X135 VSS.t76 VSS.t73 VSS.t75 VSS.t74 sky130_fd_pr__nfet_01v8_lvt ad=0.87 pd=6.58 as=0 ps=0 w=3 l=1
X136 a_2995_7336.t9 a_2995_7336.t7 a_2995_7336.t8 VSS.t9 sky130_fd_pr__nfet_01v8_lvt ad=2.03 pd=14.58 as=0 ps=0 w=7 l=1
X137 VDD.t15 VDD.t13 VDD.t15 VDD.t14 sky130_fd_pr__pfet_01v8 ad=0.145 pd=1.29 as=0 ps=0 w=1 l=0.4
X138 VSS.t72 VSS.t71 VSS.t72 VSS.t26 sky130_fd_pr__nfet_01v8_lvt ad=1.015 pd=7.29 as=0 ps=0 w=7 l=1
X139 VDD.t12 VDD.t9 VDD.t11 VDD.t10 sky130_fd_pr__pfet_01v8 ad=0.29 pd=2.58 as=0 ps=0 w=1 l=0.4
X140 a_2080_2896.t4 a_2080_2896.t3 VSS.t41 VSS.t34 sky130_fd_pr__nfet_01v8_lvt ad=0.435 pd=3.29 as=0.435 ps=3.29 w=3 l=1
X141 VSS.t70 VSS.t68 VSS.t69 VSS.t16 sky130_fd_pr__nfet_01v8_lvt ad=2.03 pd=14.58 as=0 ps=0 w=7 l=1
X142 VSS.t67 VSS.t66 VSS.t67 VSS.t17 sky130_fd_pr__nfet_01v8_lvt ad=1.015 pd=7.29 as=0 ps=0 w=7 l=1
X143 VDD.t57 a_2479_7336.t35 VOUT.t22 VDD.t2 sky130_fd_pr__pfet_01v8 ad=0.145 pd=1.29 as=0.145 ps=1.29 w=1 l=0.4
X144 VSS.t65 VSS.t64 VSS.t65 VSS.t26 sky130_fd_pr__nfet_01v8_lvt ad=1.015 pd=7.29 as=0 ps=0 w=7 l=1
X145 a_2479_9004.t1 a_2479_9004.t0 VDD.t75 VDD.t0 sky130_fd_pr__pfet_01v8 ad=0.145 pd=1.29 as=0.145 ps=1.29 w=1 l=0.4
X146 VSS.t63 VSS.t62 VSS.t63 VSS.t5 sky130_fd_pr__nfet_01v8_lvt ad=1.015 pd=7.29 as=0 ps=0 w=7 l=1
R0 VSS.n2193 VSS.n2192 2542.66
R1 VSS.n561 VSS.n546 1321.06
R2 VSS.n559 VSS.n548 1321.06
R3 VSS.n2194 VSS.n525 1321.06
R4 VSS.n642 VSS.n531 1321.06
R5 VSS.n2012 VSS.n874 1268.91
R6 VSS.n2081 VSS.n900 1268.91
R7 VSS.n2016 VSS.n2015 1268.91
R8 VSS.n2037 VSS.n2036 1268.91
R9 VSS.n1722 VSS.n1658 1268.91
R10 VSS.n1808 VSS.n1410 1268.91
R11 VSS.n1681 VSS.n1655 1268.91
R12 VSS.n1765 VSS.n1422 1268.91
R13 VSS.n744 VSS.n702 1268.91
R14 VSS.n2127 VSS.n777 1268.91
R15 VSS.n857 VSS.n774 1268.91
R16 VSS.n2161 VSS.n696 1268.91
R17 VSS.n432 VSS.n219 1182
R18 VSS.n2554 VSS.n101 1182
R19 VSS.n430 VSS.n221 1182
R20 VSS.n2490 VSS.n106 1182
R21 VSS.n2190 VSS.n655 1182
R22 VSS.n1171 VSS.n940 1182
R23 VSS.n1726 VSS.n1433 1182
R24 VSS.n2096 VSS.n887 1182
R25 VSS.n1130 VSS.n954 996.588
R26 VSS.n2193 VSS.n524 614.067
R27 VSS.n1082 VSS.n966 602.588
R28 VSS.n1034 VSS.n978 602.588
R29 VSS.n608 VSS.n607 585
R30 VSS.n607 VSS.n480 585
R31 VSS.n606 VSS.n479 585
R32 VSS.n2255 VSS.n479 585
R33 VSS.n605 VSS.n604 585
R34 VSS.n604 VSS.n475 585
R35 VSS.n603 VSS.n474 585
R36 VSS.n2261 VSS.n474 585
R37 VSS.n602 VSS.n473 585
R38 VSS.n2262 VSS.n473 585
R39 VSS.n601 VSS.n472 585
R40 VSS.n2263 VSS.n472 585
R41 VSS.n600 VSS.n599 585
R42 VSS.n599 VSS.n468 585
R43 VSS.n598 VSS.n467 585
R44 VSS.n2269 VSS.n467 585
R45 VSS.n597 VSS.n466 585
R46 VSS.n2270 VSS.n466 585
R47 VSS.n596 VSS.n465 585
R48 VSS.n2271 VSS.n465 585
R49 VSS.n595 VSS.n594 585
R50 VSS.n594 VSS.n461 585
R51 VSS.n593 VSS.n460 585
R52 VSS.n2277 VSS.n460 585
R53 VSS.n592 VSS.n459 585
R54 VSS.n2278 VSS.n459 585
R55 VSS.n591 VSS.n458 585
R56 VSS.n2279 VSS.n458 585
R57 VSS.n590 VSS.n589 585
R58 VSS.n589 VSS.n454 585
R59 VSS.n588 VSS.n453 585
R60 VSS.n2285 VSS.n453 585
R61 VSS.n587 VSS.n452 585
R62 VSS.n2286 VSS.n452 585
R63 VSS.n586 VSS.n451 585
R64 VSS.n2287 VSS.n451 585
R65 VSS.n585 VSS.n584 585
R66 VSS.n584 VSS.n445 585
R67 VSS.n583 VSS.n444 585
R68 VSS.n2293 VSS.n444 585
R69 VSS.n582 VSS.n581 585
R70 VSS.n581 VSS.n443 585
R71 VSS.n580 VSS.n533 585
R72 VSS.n580 VSS.n579 585
R73 VSS.n570 VSS.n534 585
R74 VSS.n535 VSS.n534 585
R75 VSS.n572 VSS.n571 585
R76 VSS.n573 VSS.n572 585
R77 VSS.n569 VSS.n540 585
R78 VSS.n540 VSS.n539 585
R79 VSS.n568 VSS.n567 585
R80 VSS.n567 VSS.n566 585
R81 VSS.n542 VSS.n541 585
R82 VSS.n543 VSS.n542 585
R83 VSS.n559 VSS.n558 585
R84 VSS.n560 VSS.n559 585
R85 VSS.n557 VSS.n548 585
R86 VSS.n556 VSS.n555 585
R87 VSS.n553 VSS.n549 585
R88 VSS.n551 VSS.n550 585
R89 VSS.n546 VSS.n545 585
R90 VSS.n547 VSS.n546 585
R91 VSS.n562 VSS.n561 585
R92 VSS.n561 VSS.n560 585
R93 VSS.n563 VSS.n544 585
R94 VSS.n544 VSS.n543 585
R95 VSS.n565 VSS.n564 585
R96 VSS.n566 VSS.n565 585
R97 VSS.n538 VSS.n537 585
R98 VSS.n539 VSS.n538 585
R99 VSS.n575 VSS.n574 585
R100 VSS.n574 VSS.n573 585
R101 VSS.n576 VSS.n536 585
R102 VSS.n536 VSS.n535 585
R103 VSS.n578 VSS.n577 585
R104 VSS.n579 VSS.n578 585
R105 VSS.n448 VSS.n446 585
R106 VSS.n446 VSS.n443 585
R107 VSS.n2292 VSS.n2291 585
R108 VSS.n2293 VSS.n2292 585
R109 VSS.n2290 VSS.n447 585
R110 VSS.n447 VSS.n445 585
R111 VSS.n2289 VSS.n2288 585
R112 VSS.n2288 VSS.n2287 585
R113 VSS.n450 VSS.n449 585
R114 VSS.n2286 VSS.n450 585
R115 VSS.n2284 VSS.n2283 585
R116 VSS.n2285 VSS.n2284 585
R117 VSS.n2282 VSS.n455 585
R118 VSS.n455 VSS.n454 585
R119 VSS.n2281 VSS.n2280 585
R120 VSS.n2280 VSS.n2279 585
R121 VSS.n457 VSS.n456 585
R122 VSS.n2278 VSS.n457 585
R123 VSS.n2276 VSS.n2275 585
R124 VSS.n2277 VSS.n2276 585
R125 VSS.n2274 VSS.n462 585
R126 VSS.n462 VSS.n461 585
R127 VSS.n2273 VSS.n2272 585
R128 VSS.n2272 VSS.n2271 585
R129 VSS.n464 VSS.n463 585
R130 VSS.n2270 VSS.n464 585
R131 VSS.n2268 VSS.n2267 585
R132 VSS.n2269 VSS.n2268 585
R133 VSS.n2266 VSS.n469 585
R134 VSS.n469 VSS.n468 585
R135 VSS.n2265 VSS.n2264 585
R136 VSS.n2264 VSS.n2263 585
R137 VSS.n471 VSS.n470 585
R138 VSS.n2262 VSS.n471 585
R139 VSS.n2260 VSS.n2259 585
R140 VSS.n2261 VSS.n2260 585
R141 VSS.n2258 VSS.n476 585
R142 VSS.n476 VSS.n475 585
R143 VSS.n2257 VSS.n2256 585
R144 VSS.n2256 VSS.n2255 585
R145 VSS.n478 VSS.n477 585
R146 VSS.n480 VSS.n478 585
R147 VSS.n2194 VSS.n526 585
R148 VSS.n2197 VSS.n2196 585
R149 VSS.n529 VSS.n528 585
R150 VSS.n2193 VSS.n529 585
R151 VSS.n532 VSS.n530 585
R152 VSS.n642 VSS.n641 585
R153 VSS.n640 VSS.n531 585
R154 VSS.n531 VSS.n524 585
R155 VSS.n639 VSS.n523 585
R156 VSS.n2205 VSS.n523 585
R157 VSS.n638 VSS.n522 585
R158 VSS.n2206 VSS.n522 585
R159 VSS.n637 VSS.n521 585
R160 VSS.n2207 VSS.n521 585
R161 VSS.n636 VSS.n635 585
R162 VSS.n635 VSS.n517 585
R163 VSS.n634 VSS.n516 585
R164 VSS.n2213 VSS.n516 585
R165 VSS.n633 VSS.n515 585
R166 VSS.n2214 VSS.n515 585
R167 VSS.n632 VSS.n514 585
R168 VSS.n2215 VSS.n514 585
R169 VSS.n631 VSS.n630 585
R170 VSS.n630 VSS.n510 585
R171 VSS.n629 VSS.n509 585
R172 VSS.n2221 VSS.n509 585
R173 VSS.n628 VSS.n508 585
R174 VSS.n2222 VSS.n508 585
R175 VSS.n627 VSS.n507 585
R176 VSS.n2223 VSS.n507 585
R177 VSS.n626 VSS.n625 585
R178 VSS.n625 VSS.n503 585
R179 VSS.n624 VSS.n502 585
R180 VSS.n2229 VSS.n502 585
R181 VSS.n623 VSS.n501 585
R182 VSS.n2230 VSS.n501 585
R183 VSS.n622 VSS.n500 585
R184 VSS.n2231 VSS.n500 585
R185 VSS.n621 VSS.n620 585
R186 VSS.n620 VSS.n496 585
R187 VSS.n619 VSS.n495 585
R188 VSS.n2237 VSS.n495 585
R189 VSS.n618 VSS.n494 585
R190 VSS.n2238 VSS.n494 585
R191 VSS.n617 VSS.n493 585
R192 VSS.n2239 VSS.n493 585
R193 VSS.n616 VSS.n615 585
R194 VSS.n615 VSS.n489 585
R195 VSS.n614 VSS.n488 585
R196 VSS.n2245 VSS.n488 585
R197 VSS.n613 VSS.n487 585
R198 VSS.n2246 VSS.n487 585
R199 VSS.n612 VSS.n486 585
R200 VSS.n2247 VSS.n486 585
R201 VSS.n611 VSS.n610 585
R202 VSS.n610 VSS.n482 585
R203 VSS.n609 VSS.n481 585
R204 VSS.n2253 VSS.n481 585
R205 VSS.n2252 VSS.n2251 585
R206 VSS.n2253 VSS.n2252 585
R207 VSS.n2250 VSS.n483 585
R208 VSS.n483 VSS.n482 585
R209 VSS.n2249 VSS.n2248 585
R210 VSS.n2248 VSS.n2247 585
R211 VSS.n485 VSS.n484 585
R212 VSS.n2246 VSS.n485 585
R213 VSS.n2244 VSS.n2243 585
R214 VSS.n2245 VSS.n2244 585
R215 VSS.n2242 VSS.n490 585
R216 VSS.n490 VSS.n489 585
R217 VSS.n2241 VSS.n2240 585
R218 VSS.n2240 VSS.n2239 585
R219 VSS.n492 VSS.n491 585
R220 VSS.n2238 VSS.n492 585
R221 VSS.n2236 VSS.n2235 585
R222 VSS.n2237 VSS.n2236 585
R223 VSS.n2234 VSS.n497 585
R224 VSS.n497 VSS.n496 585
R225 VSS.n2233 VSS.n2232 585
R226 VSS.n2232 VSS.n2231 585
R227 VSS.n499 VSS.n498 585
R228 VSS.n2230 VSS.n499 585
R229 VSS.n2228 VSS.n2227 585
R230 VSS.n2229 VSS.n2228 585
R231 VSS.n2226 VSS.n504 585
R232 VSS.n504 VSS.n503 585
R233 VSS.n2225 VSS.n2224 585
R234 VSS.n2224 VSS.n2223 585
R235 VSS.n506 VSS.n505 585
R236 VSS.n2222 VSS.n506 585
R237 VSS.n2220 VSS.n2219 585
R238 VSS.n2221 VSS.n2220 585
R239 VSS.n2218 VSS.n511 585
R240 VSS.n511 VSS.n510 585
R241 VSS.n2217 VSS.n2216 585
R242 VSS.n2216 VSS.n2215 585
R243 VSS.n513 VSS.n512 585
R244 VSS.n2214 VSS.n513 585
R245 VSS.n2212 VSS.n2211 585
R246 VSS.n2213 VSS.n2212 585
R247 VSS.n2210 VSS.n518 585
R248 VSS.n518 VSS.n517 585
R249 VSS.n2209 VSS.n2208 585
R250 VSS.n2208 VSS.n2207 585
R251 VSS.n520 VSS.n519 585
R252 VSS.n2206 VSS.n520 585
R253 VSS.n2204 VSS.n2203 585
R254 VSS.n2205 VSS.n2204 585
R255 VSS.n2202 VSS.n525 585
R256 VSS.n525 VSS.n524 585
R257 VSS.n1171 VSS.n1170 585
R258 VSS.n1169 VSS.n951 585
R259 VSS.n1168 VSS.n950 585
R260 VSS.n1173 VSS.n950 585
R261 VSS.n1167 VSS.n1166 585
R262 VSS.n1165 VSS.n1164 585
R263 VSS.n1163 VSS.n1162 585
R264 VSS.n1161 VSS.n1160 585
R265 VSS.n1159 VSS.n1158 585
R266 VSS.n1157 VSS.n1156 585
R267 VSS.n1155 VSS.n1154 585
R268 VSS.n1153 VSS.n1152 585
R269 VSS.n1151 VSS.n1150 585
R270 VSS.n1149 VSS.n1148 585
R271 VSS.n1147 VSS.n1146 585
R272 VSS.n1145 VSS.n1144 585
R273 VSS.n1143 VSS.n1142 585
R274 VSS.n1141 VSS.n1140 585
R275 VSS.n1139 VSS.n1138 585
R276 VSS.n1137 VSS.n1136 585
R277 VSS.n1135 VSS.n949 585
R278 VSS.n1173 VSS.n949 585
R279 VSS.n1510 VSS.n1509 585
R280 VSS.n1508 VSS.n1507 585
R281 VSS.n1506 VSS.n1505 585
R282 VSS.n1504 VSS.n1503 585
R283 VSS.n1502 VSS.n1501 585
R284 VSS.n1500 VSS.n1499 585
R285 VSS.n1498 VSS.n1497 585
R286 VSS.n1496 VSS.n1495 585
R287 VSS.n1494 VSS.n1493 585
R288 VSS.n1492 VSS.n1491 585
R289 VSS.n1490 VSS.n1489 585
R290 VSS.n1488 VSS.n1487 585
R291 VSS.n1486 VSS.n1485 585
R292 VSS.n1484 VSS.n1483 585
R293 VSS.n1482 VSS.n1481 585
R294 VSS.n1480 VSS.n1479 585
R295 VSS.n1478 VSS.n1477 585
R296 VSS.n1476 VSS.n1475 585
R297 VSS.n1474 VSS.n1473 585
R298 VSS.n657 VSS.n655 585
R299 VSS.n2190 VSS.n2189 585
R300 VSS.n2191 VSS.n2190 585
R301 VSS.n658 VSS.n656 585
R302 VSS.n656 VSS.n654 585
R303 VSS.n2185 VSS.n2184 585
R304 VSS.n2184 VSS.n2183 585
R305 VSS.n661 VSS.n660 585
R306 VSS.n2182 VSS.n661 585
R307 VSS.n2180 VSS.n2179 585
R308 VSS.n2181 VSS.n2180 585
R309 VSS.n2178 VSS.n663 585
R310 VSS.n663 VSS.n662 585
R311 VSS.n1749 VSS.n665 585
R312 VSS.n1750 VSS.n1749 585
R313 VSS.n669 VSS.n667 585
R314 VSS.n671 VSS.n669 585
R315 VSS.n2174 VSS.n2173 585
R316 VSS.n2173 VSS.n2172 585
R317 VSS.n670 VSS.n668 585
R318 VSS.n2171 VSS.n670 585
R319 VSS.n1304 VSS.n1303 585
R320 VSS.n1303 VSS.n672 585
R321 VSS.n1306 VSS.n1305 585
R322 VSS.n1307 VSS.n1306 585
R323 VSS.n1309 VSS.n1302 585
R324 VSS.n1309 VSS.n1308 585
R325 VSS.n1311 VSS.n1310 585
R326 VSS.n1310 VSS.n681 585
R327 VSS.n1312 VSS.n1301 585
R328 VSS.n1301 VSS.n682 585
R329 VSS.n1314 VSS.n1313 585
R330 VSS.n1315 VSS.n1314 585
R331 VSS.n1317 VSS.n1299 585
R332 VSS.n1317 VSS.n1316 585
R333 VSS.n1908 VSS.n1907 585
R334 VSS.n1907 VSS.n1906 585
R335 VSS.n1318 VSS.n1300 585
R336 VSS.n1323 VSS.n1318 585
R337 VSS.n1321 VSS.n1320 585
R338 VSS.n1322 VSS.n1321 585
R339 VSS.n1192 VSS.n1191 585
R340 VSS.n1319 VSS.n1191 585
R341 VSS.n1920 VSS.n1919 585
R342 VSS.n1921 VSS.n1920 585
R343 VSS.n1193 VSS.n1190 585
R344 VSS.n1922 VSS.n1190 585
R345 VSS.n1926 VSS.n1925 585
R346 VSS.n1925 VSS.n1924 585
R347 VSS.n1927 VSS.n1188 585
R348 VSS.n1923 VSS.n1188 585
R349 VSS.n1929 VSS.n1928 585
R350 VSS.n1930 VSS.n1929 585
R351 VSS.n1186 VSS.n1185 585
R352 VSS.n1931 VSS.n1186 585
R353 VSS.n1934 VSS.n1933 585
R354 VSS.n1933 VSS.n1932 585
R355 VSS.n1935 VSS.n1184 585
R356 VSS.n1184 VSS.n859 585
R357 VSS.n1937 VSS.n1936 585
R358 VSS.n1937 VSS.n860 585
R359 VSS.n1938 VSS.n1182 585
R360 VSS.n1939 VSS.n1938 585
R361 VSS.n1942 VSS.n1941 585
R362 VSS.n1941 VSS.n1940 585
R363 VSS.n1183 VSS.n928 585
R364 VSS.n928 VSS.n926 585
R365 VSS.n1955 VSS.n1954 585
R366 VSS.n1956 VSS.n1955 585
R367 VSS.n1953 VSS.n929 585
R368 VSS.n929 VSS.n927 585
R369 VSS.n936 VSS.n931 585
R370 VSS.n937 VSS.n936 585
R371 VSS.n939 VSS.n935 585
R372 VSS.n939 VSS.n938 585
R373 VSS.n1177 VSS.n1176 585
R374 VSS.n1176 VSS.n1175 585
R375 VSS.n952 VSS.n940 585
R376 VSS.n1174 VSS.n940 585
R377 VSS.n1809 VSS.n1808 585
R378 VSS.n1806 VSS.n1411 585
R379 VSS.n1805 VSS.n1804 585
R380 VSS.n1805 VSS.n680 585
R381 VSS.n1803 VSS.n1412 585
R382 VSS.n1802 VSS.n1801 585
R383 VSS.n1799 VSS.n1413 585
R384 VSS.n1797 VSS.n1796 585
R385 VSS.n1795 VSS.n1414 585
R386 VSS.n1794 VSS.n1793 585
R387 VSS.n1791 VSS.n1415 585
R388 VSS.n1789 VSS.n1788 585
R389 VSS.n1787 VSS.n1416 585
R390 VSS.n1786 VSS.n1785 585
R391 VSS.n1783 VSS.n1417 585
R392 VSS.n1781 VSS.n1780 585
R393 VSS.n1779 VSS.n1418 585
R394 VSS.n1778 VSS.n1777 585
R395 VSS.n1775 VSS.n1419 585
R396 VSS.n1773 VSS.n1772 585
R397 VSS.n1771 VSS.n1420 585
R398 VSS.n1770 VSS.n1769 585
R399 VSS.n1767 VSS.n1421 585
R400 VSS.n1765 VSS.n1764 585
R401 VSS.n1423 VSS.n1422 585
R402 VSS.n1422 VSS.n673 585
R403 VSS.n1760 VSS.n1408 585
R404 VSS.n1813 VSS.n1408 585
R405 VSS.n1759 VSS.n1758 585
R406 VSS.n1758 VSS.n1406 585
R407 VSS.n1424 VSS.n1405 585
R408 VSS.n1825 VSS.n1405 585
R409 VSS.n1753 VSS.n1752 585
R410 VSS.n1752 VSS.n1751 585
R411 VSS.n1747 VSS.n1397 585
R412 VSS.n1831 VSS.n1397 585
R413 VSS.n1746 VSS.n1745 585
R414 VSS.n1745 VSS.n1744 585
R415 VSS.n1426 VSS.n1425 585
R416 VSS.n1742 VSS.n1426 585
R417 VSS.n1675 VSS.n1674 585
R418 VSS.n1674 VSS.n1432 585
R419 VSS.n1676 VSS.n1431 585
R420 VSS.n1736 VSS.n1431 585
R421 VSS.n1678 VSS.n1677 585
R422 VSS.n1677 VSS.n1657 585
R423 VSS.n1679 VSS.n1655 585
R424 VSS.n1723 VSS.n1655 585
R425 VSS.n1682 VSS.n1681 585
R426 VSS.n1683 VSS.n1673 585
R427 VSS.n1685 VSS.n1684 585
R428 VSS.n1687 VSS.n1671 585
R429 VSS.n1689 VSS.n1688 585
R430 VSS.n1690 VSS.n1670 585
R431 VSS.n1692 VSS.n1691 585
R432 VSS.n1694 VSS.n1668 585
R433 VSS.n1696 VSS.n1695 585
R434 VSS.n1697 VSS.n1667 585
R435 VSS.n1699 VSS.n1698 585
R436 VSS.n1701 VSS.n1665 585
R437 VSS.n1703 VSS.n1702 585
R438 VSS.n1704 VSS.n1664 585
R439 VSS.n1706 VSS.n1705 585
R440 VSS.n1708 VSS.n1662 585
R441 VSS.n1710 VSS.n1709 585
R442 VSS.n1711 VSS.n1661 585
R443 VSS.n1713 VSS.n1712 585
R444 VSS.n1715 VSS.n1660 585
R445 VSS.n1716 VSS.n1659 585
R446 VSS.n1719 VSS.n1718 585
R447 VSS.n1720 VSS.n1658 585
R448 VSS.n1658 VSS.n98 585
R449 VSS.n1722 VSS.n1721 585
R450 VSS.n1723 VSS.n1722 585
R451 VSS.n1430 VSS.n1429 585
R452 VSS.n1657 VSS.n1430 585
R453 VSS.n1738 VSS.n1737 585
R454 VSS.n1737 VSS.n1736 585
R455 VSS.n1739 VSS.n1428 585
R456 VSS.n1432 VSS.n1428 585
R457 VSS.n1741 VSS.n1740 585
R458 VSS.n1742 VSS.n1741 585
R459 VSS.n1401 VSS.n1399 585
R460 VSS.n1744 VSS.n1399 585
R461 VSS.n1830 VSS.n1829 585
R462 VSS.n1831 VSS.n1830 585
R463 VSS.n1828 VSS.n1400 585
R464 VSS.n1751 VSS.n1400 585
R465 VSS.n1827 VSS.n1826 585
R466 VSS.n1826 VSS.n1825 585
R467 VSS.n1403 VSS.n1402 585
R468 VSS.n1406 VSS.n1403 585
R469 VSS.n1812 VSS.n1811 585
R470 VSS.n1813 VSS.n1812 585
R471 VSS.n1810 VSS.n1410 585
R472 VSS.n1410 VSS.n673 585
R473 VSS.n2082 VSS.n2081 585
R474 VSS.n902 VSS.n901 585
R475 VSS.n2078 VSS.n2077 585
R476 VSS.n2079 VSS.n2078 585
R477 VSS.n2076 VSS.n913 585
R478 VSS.n2075 VSS.n2074 585
R479 VSS.n2073 VSS.n2072 585
R480 VSS.n2071 VSS.n2070 585