* NGSPICE file created from ttsky25_two_stage_opamp.ext - technology: sky130A

.subckt ttsky25_two_stage_opamp VDD IBIAS VOUT VN VP EN VSS
X0 VSS.t129 VSS.t128 VSS.t129 VSS.t47 sky130_fd_pr__nfet_01v8_lvt ad=1.015 pd=7.29 as=0 ps=0 w=7 l=1
X1 VDD.t74 a_2479_7336.t18 VOUT.t15 VDD.t2 sky130_fd_pr__pfet_01v8 ad=0.145 pd=1.29 as=0.145 ps=1.29 w=1 l=0.4
X2 VSS.t132 a_2080_2896.t5 a_2080_2896.t6 VSS.t14 sky130_fd_pr__nfet_01v8_lvt ad=0.435 pd=3.29 as=0.435 ps=3.29 w=3 l=1
X3 VDD.t73 a_2479_7336.t19 VOUT.t30 VDD.t31 sky130_fd_pr__pfet_01v8 ad=0.145 pd=1.29 as=0.145 ps=1.29 w=1 l=0.4
X4 VDD.t55 VDD.t54 VDD.t55 VDD.t50 sky130_fd_pr__pfet_01v8 ad=0.145 pd=1.29 as=0 ps=0 w=1 l=0.4
X5 VSS.t138 a_2080_2896.t8 a_4920_2896.t23 VSS.t58 sky130_fd_pr__nfet_01v8_lvt ad=0.435 pd=3.29 as=0.435 ps=3.29 w=3 l=1
X6 VSS.t30 a_2080_2896.t9 a_4920_2896.t22 VSS.t0 sky130_fd_pr__nfet_01v8_lvt ad=0.435 pd=3.29 as=0.435 ps=3.29 w=3 l=1
X7 a_2479_7336.t16 a_2479_7336.t15 a_2479_7336.t16 VSS.t26 sky130_fd_pr__nfet_01v8_lvt ad=1.015 pd=7.29 as=0 ps=0 w=7 l=1
X8 VSS.t127 VSS.t126 VSS.t127 VSS.t24 sky130_fd_pr__nfet_01v8_lvt ad=1.015 pd=7.29 as=0 ps=0 w=7 l=1
X9 VDD.t53 VDD.t52 VDD.t53 VDD.t17 sky130_fd_pr__pfet_01v8 ad=0.145 pd=1.29 as=0 ps=0 w=1 l=0.4
X10 VDD.t72 a_2479_7336.t20 VOUT.t29 VDD.t28 sky130_fd_pr__pfet_01v8 ad=0.145 pd=1.29 as=0.145 ps=1.29 w=1 l=0.4
X11 VDD.t71 a_2479_7336.t21 VOUT.t28 VDD.t31 sky130_fd_pr__pfet_01v8 ad=0.145 pd=1.29 as=0.145 ps=1.29 w=1 l=0.4
X12 a_4920_2896.t21 a_2080_2896.t10 VSS.t135 VSS.t54 sky130_fd_pr__nfet_01v8_lvt ad=0.435 pd=3.29 as=0.435 ps=3.29 w=3 l=1
X13 a_2479_7336.t14 a_2479_7336.t12 a_2479_7336.t13 VSS.t16 sky130_fd_pr__nfet_01v8_lvt ad=2.03 pd=14.58 as=0 ps=0 w=7 l=1
X14 a_2479_7336.t4 VP.t0 a_2995_7336.t18 VSS.t17 sky130_fd_pr__nfet_01v8_lvt ad=1.015 pd=7.29 as=1.015 ps=7.29 w=7 l=1
X15 VSS.t36 a_2080_2896.t11 a_4920_2896.t20 VSS.t27 sky130_fd_pr__nfet_01v8_lvt ad=0.435 pd=3.29 as=0.435 ps=3.29 w=3 l=1
X16 VSS.t125 VSS.t124 VSS.t125 VSS.t88 sky130_fd_pr__nfet_01v8_lvt ad=0.435 pd=3.29 as=0 ps=0 w=3 l=1
X17 a_2995_7336.t6 VN.t0 a_2479_9004.t20 VSS.t5 sky130_fd_pr__nfet_01v8_lvt ad=1.015 pd=7.29 as=1.015 ps=7.29 w=7 l=1
X18 VDD.t70 a_2479_7336.t22 VOUT.t21 VDD.t28 sky130_fd_pr__pfet_01v8 ad=0.145 pd=1.29 as=0.145 ps=1.29 w=1 l=0.4
X19 a_2479_9004.t19 VN.t1 a_2995_7336.t19 VSS.t47 sky130_fd_pr__nfet_01v8_lvt ad=1.015 pd=7.29 as=1.015 ps=7.29 w=7 l=1
X20 VSS.t123 VSS.t122 VSS.t123 VSS.t85 sky130_fd_pr__nfet_01v8_lvt ad=0.435 pd=3.29 as=0 ps=0 w=3 l=1
X21 a_2479_9004.t12 a_2479_9004.t11 a_2479_9004.t12 VSS.t26 sky130_fd_pr__nfet_01v8_lvt ad=1.015 pd=7.29 as=0 ps=0 w=7 l=1
X22 VSS.t121 VSS.t120 VSS.t121 VSS.t52 sky130_fd_pr__nfet_01v8_lvt ad=0.435 pd=3.29 as=0 ps=0 w=3 l=1
X23 a_4920_2896.t19 a_2080_2896.t12 VSS.t40 VSS.t12 sky130_fd_pr__nfet_01v8_lvt ad=0.435 pd=3.29 as=0.435 ps=3.29 w=3 l=1
X24 a_2479_9004.t10 a_2479_9004.t8 a_2479_9004.t9 VSS.t16 sky130_fd_pr__nfet_01v8_lvt ad=2.03 pd=14.58 as=0 ps=0 w=7 l=1
X25 a_2479_9004.t18 VN.t2 a_2995_7336.t10 VSS.t17 sky130_fd_pr__nfet_01v8_lvt ad=1.015 pd=7.29 as=1.015 ps=7.29 w=7 l=1
X26 VSS.t45 a_2080_2896.t13 a_4920_2896.t18 VSS.t2 sky130_fd_pr__nfet_01v8_lvt ad=0.435 pd=3.29 as=0.435 ps=3.29 w=3 l=1
X27 VOUT.t23 a_2479_7336.t23 VDD.t69 VDD.t5 sky130_fd_pr__pfet_01v8 ad=0.145 pd=1.29 as=0.145 ps=1.29 w=1 l=0.4
X28 VSS.t119 VSS.t118 VSS.t119 VSS.t47 sky130_fd_pr__nfet_01v8_lvt ad=1.015 pd=7.29 as=0 ps=0 w=7 l=1
X29 VDD.t51 VDD.t49 VDD.t51 VDD.t50 sky130_fd_pr__pfet_01v8 ad=0.145 pd=1.29 as=0 ps=0 w=1 l=0.4
X30 a_2995_7336.t17 VP.t1 a_2479_7336.t1 VSS.t5 sky130_fd_pr__nfet_01v8_lvt ad=1.015 pd=7.29 as=1.015 ps=7.29 w=7 l=1
X31 VSS.t117 VSS.t116 VSS.t117 VSS.t6 sky130_fd_pr__nfet_01v8_lvt ad=1.015 pd=7.29 as=0 ps=0 w=7 l=1
X32 a_3758_2896.t11 a_2080_2896.t14 VSS.t131 VSS.t58 sky130_fd_pr__nfet_01v8_lvt ad=0.435 pd=3.29 as=0.435 ps=3.29 w=3 l=1
X33 a_4920_2896.t17 a_2080_2896.t15 VSS.t51 VSS.t10 sky130_fd_pr__nfet_01v8_lvt ad=0.435 pd=3.29 as=0.435 ps=3.29 w=3 l=1
X34 a_2479_7336.t11 VP.t2 a_2995_7336.t16 VSS.t47 sky130_fd_pr__nfet_01v8_lvt ad=1.015 pd=7.29 as=1.015 ps=7.29 w=7 l=1
X35 a_3758_2896.t10 a_2080_2896.t16 VSS.t33 VSS.t0 sky130_fd_pr__nfet_01v8_lvt ad=0.435 pd=3.29 as=0.435 ps=3.29 w=3 l=1
X36 VOUT.t31 a_2479_7336.t24 VDD.t68 VDD.t5 sky130_fd_pr__pfet_01v8 ad=0.145 pd=1.29 as=0.145 ps=1.29 w=1 l=0.4
X37 VSS.t137 a_2080_2896.t17 a_3758_2896.t9 VSS.t54 sky130_fd_pr__nfet_01v8_lvt ad=0.435 pd=3.29 as=0.435 ps=3.29 w=3 l=1
X38 a_4920_2896.t26 a_4920_2896.t25 a_4920_2896.t26 VSS.t22 sky130_fd_pr__nfet_01v8_lvt ad=1.015 pd=7.29 as=0 ps=0 w=7 l=1
X39 a_4920_2896.t16 a_2080_2896.t18 VSS.t29 VSS.t7 sky130_fd_pr__nfet_01v8_lvt ad=0.435 pd=3.29 as=0.435 ps=3.29 w=3 l=1
X40 a_3758_2896.t8 a_2080_2896.t19 VSS.t134 VSS.t27 sky130_fd_pr__nfet_01v8_lvt ad=0.435 pd=3.29 as=0.435 ps=3.29 w=3 l=1
X41 a_3758_2896.t7 a_2080_2896.t20 VSS.t133 VSS.t88 sky130_fd_pr__nfet_01v8_lvt ad=0.435 pd=3.29 as=0.435 ps=3.29 w=3 l=1
X42 a_4920_2896.t24 EN.t0 VOUT.t1 VSS.t23 sky130_fd_pr__nfet_01v8_lvt ad=1.015 pd=7.29 as=1.015 ps=7.29 w=7 l=1
X43 a_2995_7336.t15 VP.t3 a_2479_7336.t3 VSS.t6 sky130_fd_pr__nfet_01v8_lvt ad=1.015 pd=7.29 as=1.015 ps=7.29 w=7 l=1
X44 VDD.t8 a_2479_9004.t6 a_2479_9004.t7 VDD.t7 sky130_fd_pr__pfet_01v8 ad=0.145 pd=1.29 as=0.145 ps=1.29 w=1 l=0.4
X45 VOUT.t13 VOUT.t11 VOUT.t12 VSS.t46 sky130_fd_pr__nfet_01v8_lvt ad=2.03 pd=14.58 as=0 ps=0 w=7 l=1
X46 a_4920_2896.t15 a_2080_2896.t21 VSS.t39 VSS.t38 sky130_fd_pr__nfet_01v8_lvt ad=0.435 pd=3.29 as=0.435 ps=3.29 w=3 l=1
X47 VDD.t48 VDD.t47 VDD.t48 VDD.t20 sky130_fd_pr__pfet_01v8 ad=0.145 pd=1.29 as=0 ps=0 w=1 l=0.4
X48 VSS.t44 a_2080_2896.t22 a_4920_2896.t14 VSS.t42 sky130_fd_pr__nfet_01v8_lvt ad=0.435 pd=3.29 as=0.435 ps=3.29 w=3 l=1
X49 VDD.t46 VDD.t45 VDD.t46 VDD.t34 sky130_fd_pr__pfet_01v8 ad=0.145 pd=1.29 as=0 ps=0 w=1 l=0.4
X50 VSS.t115 VSS.t114 VSS.t115 VSS.t19 sky130_fd_pr__nfet_01v8_lvt ad=1.015 pd=7.29 as=0 ps=0 w=7 l=1
X51 VDD.t67 a_2479_7336.t25 VOUT.t18 VDD.t14 sky130_fd_pr__pfet_01v8 ad=0.145 pd=1.29 as=0.145 ps=1.29 w=1 l=0.4
X52 VSS.t113 VSS.t111 VSS.t112 VSS.t74 sky130_fd_pr__nfet_01v8_lvt ad=0.87 pd=6.58 as=0 ps=0 w=3 l=1
X53 VSS.t110 VSS.t109 VSS.t110 VSS.t6 sky130_fd_pr__nfet_01v8_lvt ad=1.015 pd=7.29 as=0 ps=0 w=7 l=1
X54 VOUT.t10 VOUT.t8 VOUT.t9 VDD.t10 sky130_fd_pr__pfet_01v8 ad=0.29 pd=2.58 as=0 ps=0 w=1 l=0.4
X55 VSS.t130 a_2080_2896.t23 a_4920_2896.t13 VSS.t34 sky130_fd_pr__nfet_01v8_lvt ad=0.435 pd=3.29 as=0.435 ps=3.29 w=3 l=1
X56 VOUT.t7 VOUT.t6 VOUT.t7 VDD.t14 sky130_fd_pr__pfet_01v8 ad=0.145 pd=1.29 as=0 ps=0 w=1 l=0.4
X57 a_2995_7336.t0 VN.t3 a_2479_9004.t17 VSS.t6 sky130_fd_pr__nfet_01v8_lvt ad=1.015 pd=7.29 as=1.015 ps=7.29 w=7 l=1
X58 VDD.t66 a_2479_7336.t26 VOUT.t19 VDD.t0 sky130_fd_pr__pfet_01v8 ad=0.145 pd=1.29 as=0.145 ps=1.29 w=1 l=0.4
X59 VSS.t108 VSS.t106 VSS.t107 VSS.t16 sky130_fd_pr__nfet_01v8_lvt ad=2.03 pd=14.58 as=0 ps=0 w=7 l=1
X60 VDD.t44 VDD.t42 VDD.t43 VDD.t10 sky130_fd_pr__pfet_01v8 ad=0.29 pd=2.58 as=0 ps=0 w=1 l=0.4
X61 a_2479_9004.t5 a_2479_9004.t4 VDD.t3 VDD.t2 sky130_fd_pr__pfet_01v8 ad=0.145 pd=1.29 as=0.145 ps=1.29 w=1 l=0.4
X62 C1.t1 VOUT.t0 sky130_fd_pr__cap_mim_m3_1 l=25.5 w=25.5
X63 VDD.t65 a_2479_7336.t27 VOUT.t20 VDD.t0 sky130_fd_pr__pfet_01v8 ad=0.145 pd=1.29 as=0.145 ps=1.29 w=1 l=0.4
X64 VSS.t8 a_2080_2896.t24 a_3758_2896.t6 VSS.t7 sky130_fd_pr__nfet_01v8_lvt ad=0.435 pd=3.29 as=0.435 ps=3.29 w=3 l=1
X65 a_4920_2896.t12 a_2080_2896.t25 VSS.t15 VSS.t14 sky130_fd_pr__nfet_01v8_lvt ad=0.435 pd=3.29 as=0.435 ps=3.29 w=3 l=1
X66 VSS.t105 VSS.t104 VSS.t105 VSS.t19 sky130_fd_pr__nfet_01v8_lvt ad=1.015 pd=7.29 as=0 ps=0 w=7 l=1
X67 VOUT.t22 a_2479_7336.t28 VDD.t64 VDD.t17 sky130_fd_pr__pfet_01v8 ad=0.145 pd=1.29 as=0.145 ps=1.29 w=1 l=0.4
X68 VDD.t76 a_2479_9004.t21 a_2479_7336.t17 VDD.t7 sky130_fd_pr__pfet_01v8 ad=0.145 pd=1.29 as=0.145 ps=1.29 w=1 l=0.4
X69 VDD.t41 VDD.t40 VDD.t41 VDD.t31 sky130_fd_pr__pfet_01v8 ad=0.145 pd=1.29 as=0 ps=0 w=1 l=0.4
X70 VSS.t103 VSS.t102 VSS.t103 VSS.t24 sky130_fd_pr__nfet_01v8_lvt ad=1.015 pd=7.29 as=0 ps=0 w=7 l=1
X71 VDD.t39 VDD.t38 VDD.t39 VDD.t20 sky130_fd_pr__pfet_01v8 ad=0.145 pd=1.29 as=0 ps=0 w=1 l=0.4
X72 VOUT.t14 a_2479_7336.t29 VDD.t63 VDD.t17 sky130_fd_pr__pfet_01v8 ad=0.145 pd=1.29 as=0.145 ps=1.29 w=1 l=0.4
X73 VSS.t50 a_2080_2896.t26 a_3758_2896.t5 VSS.t38 sky130_fd_pr__nfet_01v8_lvt ad=0.435 pd=3.29 as=0.435 ps=3.29 w=3 l=1
X74 VSS.t101 VSS.t100 VSS.t101 VSS.t5 sky130_fd_pr__nfet_01v8_lvt ad=1.015 pd=7.29 as=0 ps=0 w=7 l=1
X75 VDD.t37 VDD.t36 VDD.t37 VDD.t28 sky130_fd_pr__pfet_01v8 ad=0.145 pd=1.29 as=0 ps=0 w=1 l=0.4
X76 VSS.t99 VSS.t98 VSS.t99 VSS.t25 sky130_fd_pr__nfet_01v8_lvt ad=1.015 pd=7.29 as=0 ps=0 w=7 l=1
X77 VDD.t35 VDD.t33 VDD.t35 VDD.t34 sky130_fd_pr__pfet_01v8 ad=0.145 pd=1.29 as=0 ps=0 w=1 l=0.4
X78 a_3758_2896.t4 a_2080_2896.t27 VSS.t136 VSS.t42 sky130_fd_pr__nfet_01v8_lvt ad=0.435 pd=3.29 as=0.435 ps=3.29 w=3 l=1
X79 VSS.t97 VSS.t96 VSS.t97 VSS.t18 sky130_fd_pr__nfet_01v8_lvt ad=1.015 pd=7.29 as=0 ps=0 w=7 l=1
X80 VSS.t95 VSS.t94 VSS.t95 VSS.t18 sky130_fd_pr__nfet_01v8_lvt ad=1.015 pd=7.29 as=0 ps=0 w=7 l=1
X81 VSS.t93 VSS.t92 VSS.t93 VSS.t85 sky130_fd_pr__nfet_01v8_lvt ad=0.435 pd=3.29 as=0 ps=0 w=3 l=1
X82 a_2995_7336.t14 VP.t4 a_2479_7336.t8 VSS.t19 sky130_fd_pr__nfet_01v8_lvt ad=1.015 pd=7.29 as=1.015 ps=7.29 w=7 l=1
X83 VSS.t91 VSS.t90 VSS.t91 VSS.t52 sky130_fd_pr__nfet_01v8_lvt ad=0.435 pd=3.29 as=0 ps=0 w=3 l=1
X84 a_4920_2896.t11 a_2080_2896.t28 VSS.t13 VSS.t12 sky130_fd_pr__nfet_01v8_lvt ad=0.435 pd=3.29 as=0.435 ps=3.29 w=3 l=1
X85 a_2479_7336.t6 VP.t5 a_2995_7336.t13 VSS.t24 sky130_fd_pr__nfet_01v8_lvt ad=1.015 pd=7.29 as=1.015 ps=7.29 w=7 l=1
X86 a_2080_2896.t2 a_2080_2896.t0 a_2080_2896.t1 VSS.t31 sky130_fd_pr__nfet_01v8_lvt ad=2.03 pd=14.58 as=0 ps=0 w=7 l=1
X87 a_2479_7336.t2 a_2479_9004.t22 VDD.t4 VDD.t2 sky130_fd_pr__pfet_01v8 ad=0.145 pd=1.29 as=0.145 ps=1.29 w=1 l=0.4
X88 VSS.t3 a_2080_2896.t29 a_4920_2896.t10 VSS.t2 sky130_fd_pr__nfet_01v8_lvt ad=0.435 pd=3.29 as=0.435 ps=3.29 w=3 l=1
X89 a_2995_7336.t3 VN.t4 a_2479_9004.t16 VSS.t25 sky130_fd_pr__nfet_01v8_lvt ad=1.015 pd=7.29 as=1.015 ps=7.29 w=7 l=1
X90 VOUT.t16 a_2479_7336.t30 VDD.t62 VDD.t50 sky130_fd_pr__pfet_01v8 ad=0.145 pd=1.29 as=0.145 ps=1.29 w=1 l=0.4
X91 a_4920_2896.t9 a_2080_2896.t30 VSS.t11 VSS.t10 sky130_fd_pr__nfet_01v8_lvt ad=0.435 pd=3.29 as=0.435 ps=3.29 w=3 l=1
X92 a_2479_9004.t15 VN.t5 a_2995_7336.t2 VSS.t18 sky130_fd_pr__nfet_01v8_lvt ad=1.015 pd=7.29 as=1.015 ps=7.29 w=7 l=1
X93 VDD.t56 a_2479_9004.t23 a_2479_7336.t10 VDD.t5 sky130_fd_pr__pfet_01v8 ad=0.145 pd=1.29 as=0.145 ps=1.29 w=1 l=0.4
X94 VDD.t32 VDD.t30 VDD.t32 VDD.t31 sky130_fd_pr__pfet_01v8 ad=0.145 pd=1.29 as=0 ps=0 w=1 l=0.4
X95 VSS.t59 a_2080_2896.t31 a_4920_2896.t8 VSS.t58 sky130_fd_pr__nfet_01v8_lvt ad=0.435 pd=3.29 as=0.435 ps=3.29 w=3 l=1
X96 VOUT.t24 a_2479_7336.t31 VDD.t61 VDD.t50 sky130_fd_pr__pfet_01v8 ad=0.145 pd=1.29 as=0.145 ps=1.29 w=1 l=0.4
X97 VSS.t1 a_2080_2896.t32 a_4920_2896.t7 VSS.t0 sky130_fd_pr__nfet_01v8_lvt ad=0.435 pd=3.29 as=0.435 ps=3.29 w=3 l=1
X98 a_2995_7336.t1 VN.t6 a_2479_9004.t14 VSS.t19 sky130_fd_pr__nfet_01v8_lvt ad=1.015 pd=7.29 as=1.015 ps=7.29 w=7 l=1
X99 VDD.t29 VDD.t27 VDD.t29 VDD.t28 sky130_fd_pr__pfet_01v8 ad=0.145 pd=1.29 as=0 ps=0 w=1 l=0.4
X100 a_4920_2896.t6 a_2080_2896.t33 VSS.t55 VSS.t54 sky130_fd_pr__nfet_01v8_lvt ad=0.435 pd=3.29 as=0.435 ps=3.29 w=3 l=1
X101 a_2479_9004.t13 VN.t7 a_2995_7336.t5 VSS.t24 sky130_fd_pr__nfet_01v8_lvt ad=1.015 pd=7.29 as=1.015 ps=7.29 w=7 l=1
X102 VSS.t28 a_2080_2896.t34 a_4920_2896.t5 VSS.t27 sky130_fd_pr__nfet_01v8_lvt ad=0.435 pd=3.29 as=0.435 ps=3.29 w=3 l=1
X103 VSS.t89 VSS.t87 VSS.t89 VSS.t88 sky130_fd_pr__nfet_01v8_lvt ad=0.435 pd=3.29 as=0 ps=0 w=3 l=1
X104 a_2995_7336.t12 VP.t6 a_2479_7336.t7 VSS.t25 sky130_fd_pr__nfet_01v8_lvt ad=1.015 pd=7.29 as=1.015 ps=7.29 w=7 l=1
X105 a_2479_7336.t5 VP.t7 a_2995_7336.t11 VSS.t18 sky130_fd_pr__nfet_01v8_lvt ad=1.015 pd=7.29 as=1.015 ps=7.29 w=7 l=1
X106 VSS.t86 VSS.t84 VSS.t86 VSS.t85 sky130_fd_pr__nfet_01v8_lvt ad=0.435 pd=3.29 as=0 ps=0 w=3 l=1
X107 VSS.t53 a_2080_2896.t35 a_3758_2896.t3 VSS.t52 sky130_fd_pr__nfet_01v8_lvt ad=0.435 pd=3.29 as=0.435 ps=3.29 w=3 l=1
X108 VSS.t57 a_2080_2896.t36 a_3758_2896.t2 VSS.t12 sky130_fd_pr__nfet_01v8_lvt ad=0.435 pd=3.29 as=0.435 ps=3.29 w=3 l=1
X109 VSS.t83 VSS.t81 VSS.t82 VSS.t74 sky130_fd_pr__nfet_01v8_lvt ad=0.87 pd=6.58 as=0 ps=0 w=3 l=1
X110 a_3758_2896.t1 a_2080_2896.t37 VSS.t56 VSS.t2 sky130_fd_pr__nfet_01v8_lvt ad=0.435 pd=3.29 as=0.435 ps=3.29 w=3 l=1
X111 VDD.t6 a_2479_9004.t2 a_2479_9004.t3 VDD.t5 sky130_fd_pr__pfet_01v8 ad=0.145 pd=1.29 as=0.145 ps=1.29 w=1 l=0.4
X112 VSS.t61 a_2080_2896.t38 a_3758_2896.t0 VSS.t10 sky130_fd_pr__nfet_01v8_lvt ad=0.435 pd=3.29 as=0.435 ps=3.29 w=3 l=1
X113 IBIAS.t1 IBIAS.t0 IBIAS.t1 VSS.t48 sky130_fd_pr__nfet_01v8_lvt ad=1.015 pd=7.29 as=0 ps=0 w=7 l=1
X114 VSS.t80 VSS.t79 VSS.t80 VSS.t17 sky130_fd_pr__nfet_01v8_lvt ad=1.015 pd=7.29 as=0 ps=0 w=7 l=1
X115 VDD.t26 VDD.t25 VDD.t26 VDD.t14 sky130_fd_pr__pfet_01v8 ad=0.145 pd=1.29 as=0 ps=0 w=1 l=0.4
X116 VSS.t35 a_2080_2896.t39 a_4920_2896.t4 VSS.t34 sky130_fd_pr__nfet_01v8_lvt ad=0.435 pd=3.29 as=0.435 ps=3.29 w=3 l=1
X117 VDD.t24 VDD.t22 VDD.t23 VDD.t10 sky130_fd_pr__pfet_01v8 ad=0.29 pd=2.58 as=0 ps=0 w=1 l=0.4
X118 IBIAS.t2 EN.t1 a_2080_2896.t7 VSS.t20 sky130_fd_pr__nfet_01v8_lvt ad=1.015 pd=7.29 as=1.015 ps=7.29 w=7 l=1
X119 VSS.t78 VSS.t77 VSS.t78 VSS.t25 sky130_fd_pr__nfet_01v8_lvt ad=1.015 pd=7.29 as=0 ps=0 w=7 l=1
X120 a_2479_7336.t0 a_2479_9004.t24 VDD.t1 VDD.t0 sky130_fd_pr__pfet_01v8 ad=0.145 pd=1.29 as=0.145 ps=1.29 w=1 l=0.4
X121 a_4920_2896.t3 a_2080_2896.t40 VSS.t21 VSS.t14 sky130_fd_pr__nfet_01v8_lvt ad=0.435 pd=3.29 as=0.435 ps=3.29 w=3 l=1
X122 a_4920_2896.t2 a_2080_2896.t41 VSS.t60 VSS.t7 sky130_fd_pr__nfet_01v8_lvt ad=0.435 pd=3.29 as=0.435 ps=3.29 w=3 l=1
X123 VOUT.t25 a_2479_7336.t32 VDD.t60 VDD.t7 sky130_fd_pr__pfet_01v8 ad=0.145 pd=1.29 as=0.145 ps=1.29 w=1 l=0.4
X124 a_2479_7336.t9 C1.t0 VSS.t32 sky130_fd_pr__res_xhigh_po_1p41 l=14
X125 VDD.t21 VDD.t19 VDD.t21 VDD.t20 sky130_fd_pr__pfet_01v8 ad=0.145 pd=1.29 as=0 ps=0 w=1 l=0.4
X126 VDD.t18 VDD.t16 VDD.t18 VDD.t17 sky130_fd_pr__pfet_01v8 ad=0.145 pd=1.29 as=0 ps=0 w=1 l=0.4
X127 a_3758_2896.t14 a_3758_2896.t13 a_3758_2896.t14 VSS.t4 sky130_fd_pr__nfet_01v8_lvt ad=1.015 pd=7.29 as=0 ps=0 w=7 l=1
X128 VOUT.t26 a_2479_7336.t33 VDD.t59 VDD.t7 sky130_fd_pr__pfet_01v8 ad=0.145 pd=1.29 as=0.145 ps=1.29 w=1 l=0.4
X129 VOUT.t5 VOUT.t4 VOUT.t5 VDD.t34 sky130_fd_pr__pfet_01v8 ad=0.145 pd=1.29 as=0 ps=0 w=1 l=0.4
X130 a_4920_2896.t1 a_2080_2896.t42 VSS.t49 VSS.t38 sky130_fd_pr__nfet_01v8_lvt ad=0.435 pd=3.29 as=0.435 ps=3.29 w=3 l=1
X131 a_3758_2896.t12 EN.t2 a_2995_7336.t4 VSS.t37 sky130_fd_pr__nfet_01v8_lvt ad=1.015 pd=7.29 as=1.015 ps=7.29 w=7 l=1
X132 VSS.t43 a_2080_2896.t43 a_4920_2896.t0 VSS.t42 sky130_fd_pr__nfet_01v8_lvt ad=0.435 pd=3.29 as=0.435 ps=3.29 w=3 l=1
X133 VOUT.t3 VOUT.t2 VOUT.t3 VDD.t20 sky130_fd_pr__pfet_01v8 ad=0.145 pd=1.29 as=0 ps=0 w=1 l=0.4
X134 VOUT.t27 a_2479_7336.t34 VDD.t58 VDD.t34 sky130_fd_pr__pfet_01v8 ad=0.145 pd=1.29 as=0.145 ps=1.29 w=1 l=0.4
X135 VSS.t76 VSS.t73 VSS.t75 VSS.t74 sky130_fd_pr__nfet_01v8_lvt ad=0.87 pd=6.58 as=0 ps=0 w=3 l=1
X136 a_2995_7336.t9 a_2995_7336.t7 a_2995_7336.t8 VSS.t9 sky130_fd_pr__nfet_01v8_lvt ad=2.03 pd=14.58 as=0 ps=0 w=7 l=1
X137 VDD.t15 VDD.t13 VDD.t15 VDD.t14 sky130_fd_pr__pfet_01v8 ad=0.145 pd=1.29 as=0 ps=0 w=1 l=0.4
X138 VSS.t72 VSS.t71 VSS.t72 VSS.t26 sky130_fd_pr__nfet_01v8_lvt ad=1.015 pd=7.29 as=0 ps=0 w=7 l=1
X139 VDD.t12 VDD.t9 VDD.t11 VDD.t10 sky130_fd_pr__pfet_01v8 ad=0.29 pd=2.58 as=0 ps=0 w=1 l=0.4
X140 a_2080_2896.t4 a_2080_2896.t3 VSS.t41 VSS.t34 sky130_fd_pr__nfet_01v8_lvt ad=0.435 pd=3.29 as=0.435 ps=3.29 w=3 l=1
X141 VSS.t70 VSS.t68 VSS.t69 VSS.t16 sky130_fd_pr__nfet_01v8_lvt ad=2.03 pd=14.58 as=0 ps=0 w=7 l=1
X142 VSS.t67 VSS.t66 VSS.t67 VSS.t17 sky130_fd_pr__nfet_01v8_lvt ad=1.015 pd=7.29 as=0 ps=0 w=7 l=1
X143 VDD.t57 a_2479_7336.t35 VOUT.t17 VDD.t2 sky130_fd_pr__pfet_01v8 ad=0.145 pd=1.29 as=0.145 ps=1.29 w=1 l=0.4
X144 VSS.t65 VSS.t64 VSS.t65 VSS.t26 sky130_fd_pr__nfet_01v8_lvt ad=1.015 pd=7.29 as=0 ps=0 w=7 l=1
X145 a_2479_9004.t1 a_2479_9004.t0 VDD.t75 VDD.t0 sky130_fd_pr__pfet_01v8 ad=0.145 pd=1.29 as=0.145 ps=1.29 w=1 l=0.4
X146 VSS.t63 VSS.t62 VSS.t63 VSS.t5 sky130_fd_pr__nfet_01v8_lvt ad=1.015 pd=7.29 as=0 ps=0 w=7 l=1
R0 VSS.n2095 VSS.n2094 2542.66
R1 VSS.n553 VSS.n538 1321.06
R2 VSS.n551 VSS.n540 1321.06
R3 VSS.n2096 VSS.n517 1321.06
R4 VSS.n634 VSS.n523 1321.06
R5 VSS.n1736 VSS.n876 1268.91
R6 VSS.n1817 VSS.n856 1268.91
R7 VSS.n1692 VSS.n1691 1268.91
R8 VSS.n1770 VSS.n854 1268.91
R9 VSS.n1449 VSS.n1393 1268.91
R10 VSS.n1538 VSS.n1119 1268.91
R11 VSS.n1411 VSS.n1149 1268.91
R12 VSS.n1495 VSS.n1494 1268.91
R13 VSS.n1557 VSS.n1049 1268.91
R14 VSS.n1665 VSS.n901 1268.91
R15 VSS.n1622 VSS.n1621 1268.91
R16 VSS.n1559 VSS.n1046 1268.91
R17 VSS.n424 VSS.n219 1182
R18 VSS.n2448 VSS.n101 1182
R19 VSS.n422 VSS.n221 1182
R20 VSS.n2392 VSS.n106 1182
R21 VSS.n2092 VSS.n647 1182
R22 VSS.n2017 VSS.n788 1182
R23 VSS.n1391 VSS.n1152 1182
R24 VSS.n1830 VSS.n838 1182
R25 VSS.n1973 VSS.n842 996.588
R26 VSS.n2095 VSS.n516 614.067
R27 VSS.n1925 VSS.n1924 602.588
R28 VSS.n1877 VSS.n1876 602.588
R29 VSS.n600 VSS.n599 585
R30 VSS.n599 VSS.n472 585
R31 VSS.n598 VSS.n471 585
R32 VSS.n2157 VSS.n471 585
R33 VSS.n597 VSS.n596 585
R34 VSS.n596 VSS.n467 585
R35 VSS.n595 VSS.n466 585
R36 VSS.n2163 VSS.n466 585
R37 VSS.n594 VSS.n465 585
R38 VSS.n2164 VSS.n465 585
R39 VSS.n593 VSS.n464 585
R40 VSS.n2165 VSS.n464 585
R41 VSS.n592 VSS.n591 585
R42 VSS.n591 VSS.n460 585
R43 VSS.n590 VSS.n459 585
R44 VSS.n2171 VSS.n459 585
R45 VSS.n589 VSS.n458 585
R46 VSS.n2172 VSS.n458 585
R47 VSS.n588 VSS.n457 585
R48 VSS.n2173 VSS.n457 585
R49 VSS.n587 VSS.n586 585
R50 VSS.n586 VSS.n453 585
R51 VSS.n585 VSS.n452 585
R52 VSS.n2179 VSS.n452 585
R53 VSS.n584 VSS.n451 585
R54 VSS.n2180 VSS.n451 585
R55 VSS.n583 VSS.n450 585
R56 VSS.n2181 VSS.n450 585
R57 VSS.n582 VSS.n581 585
R58 VSS.n581 VSS.n446 585
R59 VSS.n580 VSS.n445 585
R60 VSS.n2187 VSS.n445 585
R61 VSS.n579 VSS.n444 585
R62 VSS.n2188 VSS.n444 585
R63 VSS.n578 VSS.n443 585
R64 VSS.n2189 VSS.n443 585
R65 VSS.n577 VSS.n576 585
R66 VSS.n576 VSS.n437 585
R67 VSS.n575 VSS.n436 585
R68 VSS.n2195 VSS.n436 585
R69 VSS.n574 VSS.n573 585
R70 VSS.n573 VSS.n435 585
R71 VSS.n572 VSS.n525 585
R72 VSS.n572 VSS.n571 585
R73 VSS.n562 VSS.n526 585
R74 VSS.n527 VSS.n526 585
R75 VSS.n564 VSS.n563 585
R76 VSS.n565 VSS.n564 585
R77 VSS.n561 VSS.n532 585
R78 VSS.n532 VSS.n531 585
R79 VSS.n560 VSS.n559 585
R80 VSS.n559 VSS.n558 585
R81 VSS.n534 VSS.n533 585
R82 VSS.n535 VSS.n534 585
R83 VSS.n551 VSS.n550 585
R84 VSS.n552 VSS.n551 585
R85 VSS.n549 VSS.n540 585
R86 VSS.n548 VSS.n547 585
R87 VSS.n545 VSS.n541 585
R88 VSS.n543 VSS.n542 585
R89 VSS.n538 VSS.n537 585
R90 VSS.n539 VSS.n538 585
R91 VSS.n554 VSS.n553 585
R92 VSS.n553 VSS.n552 585
R93 VSS.n555 VSS.n536 585
R94 VSS.n536 VSS.n535 585
R95 VSS.n557 VSS.n556 585
R96 VSS.n558 VSS.n557 585
R97 VSS.n530 VSS.n529 585
R98 VSS.n531 VSS.n530 585
R99 VSS.n567 VSS.n566 585
R100 VSS.n566 VSS.n565 585
R101 VSS.n568 VSS.n528 585
R102 VSS.n528 VSS.n527 585
R103 VSS.n570 VSS.n569 585
R104 VSS.n571 VSS.n570 585
R105 VSS.n440 VSS.n438 585
R106 VSS.n438 VSS.n435 585
R107 VSS.n2194 VSS.n2193 585
R108 VSS.n2195 VSS.n2194 585
R109 VSS.n2192 VSS.n439 585
R110 VSS.n439 VSS.n437 585
R111 VSS.n2191 VSS.n2190 585
R112 VSS.n2190 VSS.n2189 585
R113 VSS.n442 VSS.n441 585
R114 VSS.n2188 VSS.n442 585
R115 VSS.n2186 VSS.n2185 585
R116 VSS.n2187 VSS.n2186 585
R117 VSS.n2184 VSS.n447 585
R118 VSS.n447 VSS.n446 585
R119 VSS.n2183 VSS.n2182 585
R120 VSS.n2182 VSS.n2181 585
R121 VSS.n449 VSS.n448 585
R122 VSS.n2180 VSS.n449 585
R123 VSS.n2178 VSS.n2177 585
R124 VSS.n2179 VSS.n2178 585
R125 VSS.n2176 VSS.n454 585
R126 VSS.n454 VSS.n453 585
R127 VSS.n2175 VSS.n2174 585
R128 VSS.n2174 VSS.n2173 585
R129 VSS.n456 VSS.n455 585
R130 VSS.n2172 VSS.n456 585
R131 VSS.n2170 VSS.n2169 585
R132 VSS.n2171 VSS.n2170 585
R133 VSS.n2168 VSS.n461 585
R134 VSS.n461 VSS.n460 585
R135 VSS.n2167 VSS.n2166 585
R136 VSS.n2166 VSS.n2165 585
R137 VSS.n463 VSS.n462 585
R138 VSS.n2164 VSS.n463 585
R139 VSS.n2162 VSS.n2161 585
R140 VSS.n2163 VSS.n2162 585
R141 VSS.n2160 VSS.n468 585
R142 VSS.n468 VSS.n467 585
R143 VSS.n2159 VSS.n2158 585
R144 VSS.n2158 VSS.n2157 585
R145 VSS.n470 VSS.n469 585
R146 VSS.n472 VSS.n470 585
R147 VSS.n2096 VSS.n518 585
R148 VSS.n2099 VSS.n2098 585
R149 VSS.n521 VSS.n520 585
R150 VSS.n2095 VSS.n521 585
R151 VSS.n524 VSS.n522 585
R152 VSS.n634 VSS.n633 585
R153 VSS.n632 VSS.n523 585
R154 VSS.n523 VSS.n516 585
R155 VSS.n631 VSS.n515 585
R156 VSS.n2107 VSS.n515 585
R157 VSS.n630 VSS.n514 585
R158 VSS.n2108 VSS.n514 585
R159 VSS.n629 VSS.n513 585
R160 VSS.n2109 VSS.n513 585
R161 VSS.n628 VSS.n627 585
R162 VSS.n627 VSS.n509 585
R163 VSS.n626 VSS.n508 585
R164 VSS.n2115 VSS.n508 585
R165 VSS.n625 VSS.n507 585
R166 VSS.n2116 VSS.n507 585
R167 VSS.n624 VSS.n506 585
R168 VSS.n2117 VSS.n506 585
R169 VSS.n623 VSS.n622 585
R170 VSS.n622 VSS.n502 585
R171 VSS.n621 VSS.n501 585
R172 VSS.n2123 VSS.n501 585
R173 VSS.n620 VSS.n500 585
R174 VSS.n2124 VSS.n500 585
R175 VSS.n619 VSS.n499 585
R176 VSS.n2125 VSS.n499 585
R177 VSS.n618 VSS.n617 585
R178 VSS.n617 VSS.n495 585
R179 VSS.n616 VSS.n494 585
R180 VSS.n2131 VSS.n494 585
R181 VSS.n615 VSS.n493 585
R182 VSS.n2132 VSS.n493 585
R183 VSS.n614 VSS.n492 585
R184 VSS.n2133 VSS.n492 585
R185 VSS.n613 VSS.n612 585
R186 VSS.n612 VSS.n488 585
R187 VSS.n611 VSS.n487 585
R188 VSS.n2139 VSS.n487 585
R189 VSS.n610 VSS.n486 585
R190 VSS.n2140 VSS.n486 585
R191 VSS.n609 VSS.n485 585
R192 VSS.n2141 VSS.n485 585
R193 VSS.n608 VSS.n607 585
R194 VSS.n607 VSS.n481 585
R195 VSS.n606 VSS.n480 585
R196 VSS.n2147 VSS.n480 585
R197 VSS.n605 VSS.n479 585
R198 VSS.n2148 VSS.n479 585
R199 VSS.n604 VSS.n478 585
R200 VSS.n2149 VSS.n478 585
R201 VSS.n603 VSS.n602 585
R202 VSS.n602 VSS.n474 585
R203 VSS.n601 VSS.n473 585
R204 VSS.n2155 VSS.n473 585
R205 VSS.n2154 VSS.n2153 585
R206 VSS.n2155 VSS.n2154 585
R207 VSS.n2152 VSS.n475 585
R208 VSS.n475 VSS.n474 585
R209 VSS.n2151 VSS.n2150 585
R210 VSS.n2150 VSS.n2149 585
R211 VSS.n477 VSS.n476 585
R212 VSS.n2148 VSS.n477 585
R213 VSS.n2146 VSS.n2145 585
R214 VSS.n2147 VSS.n2146 585
R215 VSS.n2144 VSS.n482 585
R216 VSS.n482 VSS.n481 585
R217 VSS.n2143 VSS.n2142 585
R218 VSS.n2142 VSS.n2141 585
R219 VSS.n484 VSS.n483 585
R220 VSS.n2140 VSS.n484 585
R221 VSS.n2138 VSS.n2137 585
R222 VSS.n2139 VSS.n2138 585
R223 VSS.n2136 VSS.n489 585
R224 VSS.n489 VSS.n488 585
R225 VSS.n2135 VSS.n2134 585
R226 VSS.n2134 VSS.n2133 585
R227 VSS.n491 VSS.n490 585
R228 VSS.n2132 VSS.n491 585
R229 VSS.n2130 VSS.n2129 585
R230 VSS.n2131 VSS.n2130 585
R231 VSS.n2128 VSS.n496 585
R232 VSS.n496 VSS.n495 585
R233 VSS.n2127 VSS.n2126 585
R234 VSS.n2126 VSS.n2125 585
R235 VSS.n498 VSS.n497 585
R236 VSS.n2124 VSS.n498 585
R237 VSS.n2122 VSS.n2121 585
R238 VSS.n2123 VSS.n2122 585
R239 VSS.n2120 VSS.n503 585
R240 VSS.n503 VSS.n502 585
R241 VSS.n2119 VSS.n2118 585
R242 VSS.n2118 VSS.n2117 585
R243 VSS.n505 VSS.n504 585
R244 VSS.n2116 VSS.n505 585
R245 VSS.n2114 VSS.n2113 585
R246 VSS.n2115 VSS.n2114 585
R247 VSS.n2112 VSS.n510 585
R248 VSS.n510 VSS.n509 585
R249 VSS.n2111 VSS.n2110 585
R250 VSS.n2110 VSS.n2109 585
R251 VSS.n512 VSS.n511 585
R252 VSS.n2108 VSS.n512 585
R253 VSS.n2106 VSS.n2105 585
R254 VSS.n2107 VSS.n2106 585
R255 VSS.n2104 VSS.n517 585
R256 VSS.n517 VSS.n516 585
R257 VSS.n788 VSS.n787 585
R258 VSS.n2013 VSS.n2012 585
R259 VSS.n2011 VSS.n799 585
R260 VSS.n2015 VSS.n799 585
R261 VSS.n2010 VSS.n2009 585
R262 VSS.n2008 VSS.n2007 585
R263 VSS.n2006 VSS.n2005 585
R264 VSS.n2004 VSS.n2003 585
R265 VSS.n2002 VSS.n2001 585
R266 VSS.n2000 VSS.n1999 585
R267 VSS.n1998 VSS.n1997 585
R268 VSS.n1996 VSS.n1995 585
R269 VSS.n1994 VSS.n1993 585
R270 VSS.n1992 VSS.n1991 585
R271 VSS.n1990 VSS.n1989 585
R272 VSS.n1988 VSS.n1987 585
R273 VSS.n1986 VSS.n1985 585
R274 VSS.n1984 VSS.n1983 585
R275 VSS.n1982 VSS.n1981 585
R276 VSS.n1980 VSS.n1979 585
R277 VSS.n1978 VSS.n798 585
R278 VSS.n2015 VSS.n798 585
R279 VSS.n1229 VSS.n1228 585
R280 VSS.n1227 VSS.n1226 585
R281 VSS.n1225 VSS.n1224 585
R282 VSS.n1223 VSS.n1222 585
R283 VSS.n1221 VSS.n1220 585
R284 VSS.n1219 VSS.n1218 585
R285 VSS.n1217 VSS.n1216 585
R286 VSS.n1215 VSS.n1214 585
R287 VSS.n1213 VSS.n1212 585
R288 VSS.n1211 VSS.n1210 585
R289 VSS.n1209 VSS.n1208 585
R290 VSS.n1207 VSS.n1206 585
R291 VSS.n1205 VSS.n1204 585
R292 VSS.n1203 VSS.n1202 585
R293 VSS.n1201 VSS.n1200 585
R294 VSS.n1199 VSS.n1198 585
R295 VSS.n1197 VSS.n1196 585
R296 VSS.n1195 VSS.n1194 585
R297 VSS.n1193 VSS.n1192 585
R298 VSS.n649 VSS.n647 585
R299 VSS.n2092 VSS.n2091 585
R300 VSS.n2093 VSS.n2092 585
R301 VSS.n2090 VSS.n648 585
R302 VSS.n648 VSS.n646 585
R303 VSS.n2089 VSS.n2088 585
R304 VSS.n2088 VSS.n2087 585
R305 VSS.n651 VSS.n650 585
R306 VSS.n2086 VSS.n651 585
R307 VSS.n2084 VSS.n2083 585
R308 VSS.n2085 VSS.n2084 585
R309 VSS.n2082 VSS.n653 585
R310 VSS.n653 VSS.n652 585
R311 VSS.n2081 VSS.n2080 585
R312 VSS.n2080 VSS.n2079 585
R313 VSS.n655 VSS.n654 585
R314 VSS.n2078 VSS.n655 585
R315 VSS.n2076 VSS.n2075 585
R316 VSS.n2077 VSS.n2076 585
R317 VSS.n2074 VSS.n657 585
R318 VSS.n657 VSS.n656 585
R319 VSS.n2073 VSS.n2072 585
R320 VSS.n2072 VSS.n2071 585
R321 VSS.n659 VSS.n658 585
R322 VSS.n2070 VSS.n659 585
R323 VSS.n2068 VSS.n2067 585
R324 VSS.n2069 VSS.n2068 585
R325 VSS.n2066 VSS.n661 585
R326 VSS.n661 VSS.n660 585
R327 VSS.n2065 VSS.n2064 585
R328 VSS.n2064 VSS.n2063 585
R329 VSS.n663 VSS.n662 585
R330 VSS.n2062 VSS.n663 585
R331 VSS.n2060 VSS.n2059 585
R332 VSS.n2061 VSS.n2060 585
R333 VSS.n2058 VSS.n665 585
R334 VSS.n1035 VSS.n665 585
R335 VSS.n1042 VSS.n667 585
R336 VSS.n1043 VSS.n1042 585
R337 VSS.n1041 VSS.n1040 585
R338 VSS.n1041 VSS.n1036 585
R339 VSS.n1039 VSS.n1038 585
R340 VSS.n1038 VSS.n1037 585
R341 VSS.n770 VSS.n769 585
R342 VSS.n772 VSS.n770 585
R343 VSS.n2050 VSS.n2049 585
R344 VSS.n2049 VSS.n2048 585
R345 VSS.n774 VSS.n771 585
R346 VSS.n2047 VSS.n771 585
R347 VSS.n2045 VSS.n2044 585
R348 VSS.n2046 VSS.n2045 585
R349 VSS.n2043 VSS.n773 585
R350 VSS.n777 VSS.n773 585
R351 VSS.n2042 VSS.n2041 585
R352 VSS.n2041 VSS.n2040 585
R353 VSS.n776 VSS.n775 585
R354 VSS.n2039 VSS.n776 585
R355 VSS.n2037 VSS.n2036 585
R356 VSS.n2038 VSS.n2037 585
R357 VSS.n2035 VSS.n778 585
R358 VSS.n781 VSS.n778 585
R359 VSS.n2034 VSS.n2033 585
R360 VSS.n2033 VSS.n2032 585
R361 VSS.n780 VSS.n779 585
R362 VSS.n2031 VSS.n780 585
R363 VSS.n2029 VSS.n2028 585
R364 VSS.n2030 VSS.n2029 585
R365 VSS.n2027 VSS.n782 585
R366 VSS.n785 VSS.n782 585
R367 VSS.n2026 VSS.n2025 585
R368 VSS.n2025 VSS.n2024 585
R369 VSS.n784 VSS.n783 585
R370 VSS.n2023 VSS.n784 585
R371 VSS.n2021 VSS.n2020 585
R372 VSS.n2022 VSS.n2021 585
R373 VSS.n2019 VSS.n786 585
R374 VSS.n789 VSS.n786 585
R375 VSS.n2018 VSS.n2017 585
R376 VSS.n2017 VSS.n2016 585
R377 VSS.n1538 VSS.n1537 585
R378 VSS.n1536 VSS.n1118 585
R379 VSS.n1535 VSS.n1117 585
R380 VSS.n1540 VSS.n1117 585
R381 VSS.n1534 VSS.n1533 585
R382 VSS.n1532 VSS.n1531 585
R383 VSS.n1530 VSS.n1529 585
R384 VSS.n1528 VSS.n1527 585
R385 VSS.n1526 VSS.n1525 585
R386 VSS.n1524 VSS.n1523 585
R387 VSS.n1522 VSS.n1521 585
R388 VSS.n1520 VSS.n1519 585
R389 VSS.n1518 VSS.n1517 585
R390 VSS.n1516 VSS.n1515 585
R391 VSS.n1514 VSS.n1513 585
R392 VSS.n1512 VSS.n1511 585
R393 VSS.n1510 VSS.n1509 585
R394 VSS.n1508 VSS.n1507 585
R395 VSS.n1506 VSS.n1505 585
R396 VSS.n1504 VSS.n1503 585
R397 VSS.n1502 VSS.n1501 585
R398 VSS.n1500 VSS.n1499 585
R399 VSS.n1498 VSS.n1497 585
R400 VSS.n1496 VSS.n1495 585
R401 VSS.n1494 VSS.n1121 585
R402 VSS.n1494 VSS.n1493 585
R403 VSS.n1471 VSS.n1122 585
R404 VSS.n1123 VSS.n1122 585
R405 VSS.n1472 VSS.n1131 585
R406 VSS.n1484 VSS.n1131 585
R407 VSS.n1474 VSS.n1139 585
R408 VSS.n1139 VSS.n1130 585
R409 VSS.n1476 VSS.n1475 585
R410 VSS.n1477 VSS.n1476 585
R411 VSS.n1469 VSS.n1138 585
R412 VSS.n1381 VSS.n1138 585
R413 VSS.n1468 VSS.n1467 585
R414 VSS.n1467 VSS.n1466 585
R415 VSS.n1141 VSS.n1140 585
R416 VSS.n1385 VSS.n1141 585
R417 VSS.n1459 VSS.n1458 585
R418 VSS.n1460 VSS.n1459 585
R419 VSS.n1457 VSS.n1147 585
R420 VSS.n1151 VSS.n1147 585
R421 VSS.n1456 VSS.n1455 585
R422 VSS.n1455 VSS.n1454 585
R423 VSS.n1149 VSS.n1148 585
R424 VSS.n1150 VSS.n1149 585
R425 VSS.n1411 VSS.n1410 585
R426 VSS.n1413 VSS.n1408 585
R427 VSS.n1415 VSS.n1414 585
R428 VSS.n1416 VSS.n1407 585
R429 VSS.n1418 VSS.n1417 585
R430 VSS.n1420 VSS.n1405 585
R431 VSS.n1422 VSS.n1421 585
R432 VSS.n1423 VSS.n1404 585
R433 VSS.n1425 VSS.n1424 585
R434 VSS.n1427 VSS.n1402 585
R435 VSS.n1429 VSS.n1428 585
R436 VSS.n1430 VSS.n1401 585
R437 VSS.n1432 VSS.n1431 585
R438 VSS.n1434 VSS.n1399 585
R439 VSS.n1436 VSS.n1435 585
R440 VSS.n1437 VSS.n1398 585
R441 VSS.n1439 VSS.n1438 585
R442 VSS.n1441 VSS.n1396 585
R443 VSS.n1443 VSS.n1442 585
R444 VSS.n1444 VSS.n1395 585
R445 VSS.n1446 VSS.n1445 585
R446 VSS.n1448 VSS.n1394 585
R447 VSS.n1450 VSS.n1449 585
R448 VSS.n1449 VSS.n98 585
R449 VSS.n1451 VSS.n1393 585
R450 VSS.n1393 VSS.n1150 585
R451 VSS.n1453 VSS.n1452 585
R452 VSS.n1454 VSS.n1453 585
R453 VSS.n1145 VSS.n1144 585
R454 VSS.n1151 VSS.n1145 585
R455 VSS.n1462 VSS.n1461 585
R456 VSS.n1461 VSS.n1460 585
R457 VSS.n1463 VSS.n1143 585
R458 VSS.n1385 VSS.n1143 585
R459 VSS.n1465 VSS.n1464 585
R460 VSS.n1466 VSS.n1465 585
R461 VSS.n1136 VSS.n1135 585
R462 VSS.n1381 VSS.n1136 585
R463 VSS.n1479 VSS.n1478 585
R464 VSS.n1478 VSS.n1477 585
R465 VSS.n1480 VSS.n1133 585
R466 VSS.n1133 VSS.n1130 585
R467 VSS.n1483 VSS.n1482 585
R468 VSS.n1484 VSS.n1483 585
R469 VSS.n1481 VSS.n1134 585
R470 VSS.n1134 VSS.n1123 585
R471 VSS.n1120 VSS.n1119 585
R472 VSS.n1493 VSS.n1119 585
R473 VSS.n1815 VSS.n856 585
R474 VSS.n1814 VSS.n1813 585
R475 VSS.n1811 VSS.n858 585
R476 VSS.n1811 VSS.n855 585
R477 VSS.n1810 VSS.n1809 585
R478 VSS.n1808 VSS.n1807 585
R479 VSS.n1806 VSS.n860 585
R480 VSS.n1804 VSS.n1803 585
R481 VSS.n1802 VSS.n861 585