* NGSPICE file created from ttsky25_two_stage_opamp.ext - technology: sky130A

.subckt ttsky25_two_stage_opamp VDD IBIAS VOUT VN VP EN VSS
X0 VSS.t132 VSS.t131 VSS.t132 VSS.t8 sky130_fd_pr__nfet_01v8_lvt ad=1.015 pd=7.29 as=0 ps=0 w=7 l=1
X1 VDD.t74 a_2479_7336.t18 VOUT.t15 VDD.t2 sky130_fd_pr__pfet_01v8 ad=0.145 pd=1.29 as=0.145 ps=1.29 w=1 l=0.4
X2 VSS.t58 a_2080_2896.t5 a_2080_2896.t6 VSS.t14 sky130_fd_pr__nfet_01v8_lvt ad=0.435 pd=3.29 as=0.435 ps=3.29 w=3 l=1
X3 VDD.t73 a_2479_7336.t19 VOUT.t14 VDD.t31 sky130_fd_pr__pfet_01v8 ad=0.145 pd=1.29 as=0.145 ps=1.29 w=1 l=0.4
X4 VDD.t55 VDD.t54 VDD.t55 VDD.t50 sky130_fd_pr__pfet_01v8 ad=0.145 pd=1.29 as=0 ps=0 w=1 l=0.4
X5 VSS.t39 a_2080_2896.t8 a_4920_2896.t23 VSS.t38 sky130_fd_pr__nfet_01v8_lvt ad=0.435 pd=3.29 as=0.435 ps=3.29 w=3 l=1
X6 VSS.t17 a_2080_2896.t9 a_4920_2896.t22 VSS.t16 sky130_fd_pr__nfet_01v8_lvt ad=0.435 pd=3.29 as=0.435 ps=3.29 w=3 l=1
X7 a_2479_7336.t14 a_2479_7336.t13 a_2479_7336.t14 VSS.t0 sky130_fd_pr__nfet_01v8_lvt ad=1.015 pd=7.29 as=0 ps=0 w=7 l=1
X8 VSS.t130 VSS.t129 VSS.t130 VSS.t23 sky130_fd_pr__nfet_01v8_lvt ad=1.015 pd=7.29 as=0 ps=0 w=7 l=1
X9 VDD.t53 VDD.t52 VDD.t53 VDD.t17 sky130_fd_pr__pfet_01v8 ad=0.145 pd=1.29 as=0 ps=0 w=1 l=0.4
X10 VDD.t72 a_2479_7336.t20 VOUT.t16 VDD.t28 sky130_fd_pr__pfet_01v8 ad=0.145 pd=1.29 as=0.145 ps=1.29 w=1 l=0.4
X11 VDD.t71 a_2479_7336.t21 VOUT.t27 VDD.t31 sky130_fd_pr__pfet_01v8 ad=0.145 pd=1.29 as=0.145 ps=1.29 w=1 l=0.4
X12 a_4920_2896.t21 a_2080_2896.t10 VSS.t64 VSS.t53 sky130_fd_pr__nfet_01v8_lvt ad=0.435 pd=3.29 as=0.435 ps=3.29 w=3 l=1
X13 a_2479_7336.t12 a_2479_7336.t10 a_2479_7336.t11 VSS.t7 sky130_fd_pr__nfet_01v8_lvt ad=2.03 pd=14.58 as=0 ps=0 w=7 l=1
X14 a_2479_7336.t7 VP.t0 a_2995_7336.t14 VSS.t43 sky130_fd_pr__nfet_01v8_lvt ad=1.015 pd=7.29 as=1.015 ps=7.29 w=7 l=1
X15 VSS.t56 a_2080_2896.t11 a_4920_2896.t20 VSS.t55 sky130_fd_pr__nfet_01v8_lvt ad=0.435 pd=3.29 as=0.435 ps=3.29 w=3 l=1
X16 VSS.t128 VSS.t127 VSS.t128 VSS.t91 sky130_fd_pr__nfet_01v8_lvt ad=0.435 pd=3.29 as=0 ps=0 w=3 l=1
X17 a_2995_7336.t2 VN.t0 a_2479_9004.t20 VSS.t9 sky130_fd_pr__nfet_01v8_lvt ad=1.015 pd=7.29 as=1.015 ps=7.29 w=7 l=1
X18 VDD.t70 a_2479_7336.t22 VOUT.t23 VDD.t28 sky130_fd_pr__pfet_01v8 ad=0.145 pd=1.29 as=0.145 ps=1.29 w=1 l=0.4
X19 a_2479_9004.t19 VN.t1 a_2995_7336.t6 VSS.t8 sky130_fd_pr__nfet_01v8_lvt ad=1.015 pd=7.29 as=1.015 ps=7.29 w=7 l=1
X20 VSS.t126 VSS.t125 VSS.t126 VSS.t88 sky130_fd_pr__nfet_01v8_lvt ad=0.435 pd=3.29 as=0 ps=0 w=3 l=1
X21 a_2479_9004.t12 a_2479_9004.t11 a_2479_9004.t12 VSS.t0 sky130_fd_pr__nfet_01v8_lvt ad=1.015 pd=7.29 as=0 ps=0 w=7 l=1
X22 VSS.t124 VSS.t123 VSS.t124 VSS.t36 sky130_fd_pr__nfet_01v8_lvt ad=0.435 pd=3.29 as=0 ps=0 w=3 l=1
X23 a_4920_2896.t19 a_2080_2896.t12 VSS.t47 VSS.t3 sky130_fd_pr__nfet_01v8_lvt ad=0.435 pd=3.29 as=0.435 ps=3.29 w=3 l=1
X24 a_2479_9004.t10 a_2479_9004.t8 a_2479_9004.t9 VSS.t7 sky130_fd_pr__nfet_01v8_lvt ad=2.03 pd=14.58 as=0 ps=0 w=7 l=1
X25 a_2479_9004.t18 VN.t2 a_2995_7336.t16 VSS.t43 sky130_fd_pr__nfet_01v8_lvt ad=1.015 pd=7.29 as=1.015 ps=7.29 w=7 l=1
X26 VSS.t30 a_2080_2896.t13 a_4920_2896.t18 VSS.t25 sky130_fd_pr__nfet_01v8_lvt ad=0.435 pd=3.29 as=0.435 ps=3.29 w=3 l=1
X27 VOUT.t22 a_2479_7336.t23 VDD.t69 VDD.t5 sky130_fd_pr__pfet_01v8 ad=0.145 pd=1.29 as=0.145 ps=1.29 w=1 l=0.4
X28 VSS.t122 VSS.t121 VSS.t122 VSS.t8 sky130_fd_pr__nfet_01v8_lvt ad=1.015 pd=7.29 as=0 ps=0 w=7 l=1
X29 VDD.t51 VDD.t49 VDD.t51 VDD.t50 sky130_fd_pr__pfet_01v8 ad=0.145 pd=1.29 as=0 ps=0 w=1 l=0.4
X30 a_2995_7336.t13 VP.t1 a_2479_7336.t3 VSS.t9 sky130_fd_pr__nfet_01v8_lvt ad=1.015 pd=7.29 as=1.015 ps=7.29 w=7 l=1
X31 VSS.t120 VSS.t119 VSS.t120 VSS.t60 sky130_fd_pr__nfet_01v8_lvt ad=1.015 pd=7.29 as=0 ps=0 w=7 l=1
X32 a_3758_2896.t11 a_2080_2896.t14 VSS.t42 VSS.t38 sky130_fd_pr__nfet_01v8_lvt ad=0.435 pd=3.29 as=0.435 ps=3.29 w=3 l=1
X33 a_4920_2896.t17 a_2080_2896.t15 VSS.t35 VSS.t34 sky130_fd_pr__nfet_01v8_lvt ad=0.435 pd=3.29 as=0.435 ps=3.29 w=3 l=1
X34 a_2479_7336.t2 VP.t2 a_2995_7336.t12 VSS.t8 sky130_fd_pr__nfet_01v8_lvt ad=1.015 pd=7.29 as=1.015 ps=7.29 w=7 l=1
X35 a_3758_2896.t10 a_2080_2896.t16 VSS.t32 VSS.t16 sky130_fd_pr__nfet_01v8_lvt ad=0.435 pd=3.29 as=0.435 ps=3.29 w=3 l=1
X36 VOUT.t30 a_2479_7336.t24 VDD.t68 VDD.t5 sky130_fd_pr__pfet_01v8 ad=0.145 pd=1.29 as=0.145 ps=1.29 w=1 l=0.4
X37 VSS.t138 a_2080_2896.t17 a_3758_2896.t9 VSS.t53 sky130_fd_pr__nfet_01v8_lvt ad=0.435 pd=3.29 as=0.435 ps=3.29 w=3 l=1
X38 a_4920_2896.t26 a_4920_2896.t25 a_4920_2896.t26 VSS.t57 sky130_fd_pr__nfet_01v8_lvt ad=1.015 pd=7.29 as=0 ps=0 w=7 l=1
X39 a_4920_2896.t16 a_2080_2896.t18 VSS.t21 VSS.t20 sky130_fd_pr__nfet_01v8_lvt ad=0.435 pd=3.29 as=0.435 ps=3.29 w=3 l=1
X40 a_3758_2896.t8 a_2080_2896.t19 VSS.t134 VSS.t55 sky130_fd_pr__nfet_01v8_lvt ad=0.435 pd=3.29 as=0.435 ps=3.29 w=3 l=1
X41 a_3758_2896.t7 a_2080_2896.t20 VSS.t136 VSS.t91 sky130_fd_pr__nfet_01v8_lvt ad=0.435 pd=3.29 as=0.435 ps=3.29 w=3 l=1
X42 a_4920_2896.t24 EN.t0 VOUT.t0 VSS.t18 sky130_fd_pr__nfet_01v8_lvt ad=1.015 pd=7.29 as=1.015 ps=7.29 w=7 l=1
X43 a_2995_7336.t11 VP.t3 a_2479_7336.t15 VSS.t60 sky130_fd_pr__nfet_01v8_lvt ad=1.015 pd=7.29 as=1.015 ps=7.29 w=7 l=1
X44 VDD.t8 a_2479_9004.t6 a_2479_9004.t7 VDD.t7 sky130_fd_pr__pfet_01v8 ad=0.145 pd=1.29 as=0.145 ps=1.29 w=1 l=0.4
X45 VOUT.t13 VOUT.t11 VOUT.t12 VSS.t22 sky130_fd_pr__nfet_01v8_lvt ad=2.03 pd=14.58 as=0 ps=0 w=7 l=1
X46 a_4920_2896.t15 a_2080_2896.t21 VSS.t137 VSS.t1 sky130_fd_pr__nfet_01v8_lvt ad=0.435 pd=3.29 as=0.435 ps=3.29 w=3 l=1
X47 VDD.t48 VDD.t47 VDD.t48 VDD.t20 sky130_fd_pr__pfet_01v8 ad=0.145 pd=1.29 as=0 ps=0 w=1 l=0.4
X48 VSS.t44 a_2080_2896.t22 a_4920_2896.t14 VSS.t5 sky130_fd_pr__nfet_01v8_lvt ad=0.435 pd=3.29 as=0.435 ps=3.29 w=3 l=1
X49 VDD.t46 VDD.t45 VDD.t46 VDD.t34 sky130_fd_pr__pfet_01v8 ad=0.145 pd=1.29 as=0 ps=0 w=1 l=0.4
X50 VSS.t118 VSS.t117 VSS.t118 VSS.t33 sky130_fd_pr__nfet_01v8_lvt ad=1.015 pd=7.29 as=0 ps=0 w=7 l=1
X51 VDD.t67 a_2479_7336.t25 VOUT.t29 VDD.t14 sky130_fd_pr__pfet_01v8 ad=0.145 pd=1.29 as=0.145 ps=1.29 w=1 l=0.4
X52 VSS.t116 VSS.t114 VSS.t115 VSS.t77 sky130_fd_pr__nfet_01v8_lvt ad=0.87 pd=6.58 as=0 ps=0 w=3 l=1
X53 VSS.t113 VSS.t112 VSS.t113 VSS.t60 sky130_fd_pr__nfet_01v8_lvt ad=1.015 pd=7.29 as=0 ps=0 w=7 l=1
X54 VOUT.t10 VOUT.t8 VOUT.t9 VDD.t10 sky130_fd_pr__pfet_01v8 ad=0.29 pd=2.58 as=0 ps=0 w=1 l=0.4
X55 VSS.t46 a_2080_2896.t23 a_4920_2896.t13 VSS.t27 sky130_fd_pr__nfet_01v8_lvt ad=0.435 pd=3.29 as=0.435 ps=3.29 w=3 l=1
X56 VOUT.t7 VOUT.t6 VOUT.t7 VDD.t14 sky130_fd_pr__pfet_01v8 ad=0.145 pd=1.29 as=0 ps=0 w=1 l=0.4
X57 a_2995_7336.t15 VN.t3 a_2479_9004.t17 VSS.t60 sky130_fd_pr__nfet_01v8_lvt ad=1.015 pd=7.29 as=1.015 ps=7.29 w=7 l=1
X58 VDD.t66 a_2479_7336.t26 VOUT.t28 VDD.t0 sky130_fd_pr__pfet_01v8 ad=0.145 pd=1.29 as=0.145 ps=1.29 w=1 l=0.4
X59 VSS.t111 VSS.t109 VSS.t110 VSS.t7 sky130_fd_pr__nfet_01v8_lvt ad=2.03 pd=14.58 as=0 ps=0 w=7 l=1
X60 VDD.t44 VDD.t42 VDD.t43 VDD.t10 sky130_fd_pr__pfet_01v8 ad=0.29 pd=2.58 as=0 ps=0 w=1 l=0.4
X61 a_2479_9004.t5 a_2479_9004.t4 VDD.t3 VDD.t2 sky130_fd_pr__pfet_01v8 ad=0.145 pd=1.29 as=0.145 ps=1.29 w=1 l=0.4
X62 C1.t1 VOUT.t1 sky130_fd_pr__cap_mim_m3_1 l=25.5 w=25.5
X63 VDD.t65 a_2479_7336.t27 VOUT.t17 VDD.t0 sky130_fd_pr__pfet_01v8 ad=0.145 pd=1.29 as=0.145 ps=1.29 w=1 l=0.4
X64 VSS.t133 a_2080_2896.t24 a_3758_2896.t6 VSS.t20 sky130_fd_pr__nfet_01v8_lvt ad=0.435 pd=3.29 as=0.435 ps=3.29 w=3 l=1
X65 a_4920_2896.t12 a_2080_2896.t25 VSS.t15 VSS.t14 sky130_fd_pr__nfet_01v8_lvt ad=0.435 pd=3.29 as=0.435 ps=3.29 w=3 l=1
X66 VSS.t108 VSS.t107 VSS.t108 VSS.t33 sky130_fd_pr__nfet_01v8_lvt ad=1.015 pd=7.29 as=0 ps=0 w=7 l=1
X67 VOUT.t31 a_2479_7336.t28 VDD.t64 VDD.t17 sky130_fd_pr__pfet_01v8 ad=0.145 pd=1.29 as=0.145 ps=1.29 w=1 l=0.4
X68 VDD.t76 a_2479_9004.t21 a_2479_7336.t17 VDD.t7 sky130_fd_pr__pfet_01v8 ad=0.145 pd=1.29 as=0.145 ps=1.29 w=1 l=0.4
X69 VDD.t41 VDD.t40 VDD.t41 VDD.t31 sky130_fd_pr__pfet_01v8 ad=0.145 pd=1.29 as=0 ps=0 w=1 l=0.4
X70 VSS.t106 VSS.t105 VSS.t106 VSS.t23 sky130_fd_pr__nfet_01v8_lvt ad=1.015 pd=7.29 as=0 ps=0 w=7 l=1
X71 VDD.t39 VDD.t38 VDD.t39 VDD.t20 sky130_fd_pr__pfet_01v8 ad=0.145 pd=1.29 as=0 ps=0 w=1 l=0.4
X72 VOUT.t19 a_2479_7336.t29 VDD.t63 VDD.t17 sky130_fd_pr__pfet_01v8 ad=0.145 pd=1.29 as=0.145 ps=1.29 w=1 l=0.4
X73 VSS.t2 a_2080_2896.t26 a_3758_2896.t5 VSS.t1 sky130_fd_pr__nfet_01v8_lvt ad=0.435 pd=3.29 as=0.435 ps=3.29 w=3 l=1
X74 VSS.t104 VSS.t103 VSS.t104 VSS.t9 sky130_fd_pr__nfet_01v8_lvt ad=1.015 pd=7.29 as=0 ps=0 w=7 l=1
X75 VDD.t37 VDD.t36 VDD.t37 VDD.t28 sky130_fd_pr__pfet_01v8 ad=0.145 pd=1.29 as=0 ps=0 w=1 l=0.4
X76 VSS.t102 VSS.t101 VSS.t102 VSS.t11 sky130_fd_pr__nfet_01v8_lvt ad=1.015 pd=7.29 as=0 ps=0 w=7 l=1
X77 VDD.t35 VDD.t33 VDD.t35 VDD.t34 sky130_fd_pr__pfet_01v8 ad=0.145 pd=1.29 as=0 ps=0 w=1 l=0.4
X78 a_3758_2896.t4 a_2080_2896.t27 VSS.t6 VSS.t5 sky130_fd_pr__nfet_01v8_lvt ad=0.435 pd=3.29 as=0.435 ps=3.29 w=3 l=1
X79 VSS.t100 VSS.t99 VSS.t100 VSS.t10 sky130_fd_pr__nfet_01v8_lvt ad=1.015 pd=7.29 as=0 ps=0 w=7 l=1
X80 VSS.t98 VSS.t97 VSS.t98 VSS.t10 sky130_fd_pr__nfet_01v8_lvt ad=1.015 pd=7.29 as=0 ps=0 w=7 l=1
X81 VSS.t96 VSS.t95 VSS.t96 VSS.t88 sky130_fd_pr__nfet_01v8_lvt ad=0.435 pd=3.29 as=0 ps=0 w=3 l=1
X82 a_2995_7336.t10 VP.t4 a_2479_7336.t16 VSS.t33 sky130_fd_pr__nfet_01v8_lvt ad=1.015 pd=7.29 as=1.015 ps=7.29 w=7 l=1
X83 VSS.t94 VSS.t93 VSS.t94 VSS.t36 sky130_fd_pr__nfet_01v8_lvt ad=0.435 pd=3.29 as=0 ps=0 w=3 l=1
X84 a_4920_2896.t11 a_2080_2896.t28 VSS.t29 VSS.t3 sky130_fd_pr__nfet_01v8_lvt ad=0.435 pd=3.29 as=0.435 ps=3.29 w=3 l=1
X85 a_2479_7336.t6 VP.t5 a_2995_7336.t9 VSS.t23 sky130_fd_pr__nfet_01v8_lvt ad=1.015 pd=7.29 as=1.015 ps=7.29 w=7 l=1
X86 a_2080_2896.t2 a_2080_2896.t0 a_2080_2896.t1 VSS.t59 sky130_fd_pr__nfet_01v8_lvt ad=2.03 pd=14.58 as=0 ps=0 w=7 l=1
X87 a_2479_7336.t1 a_2479_9004.t22 VDD.t4 VDD.t2 sky130_fd_pr__pfet_01v8 ad=0.145 pd=1.29 as=0.145 ps=1.29 w=1 l=0.4
X88 VSS.t51 a_2080_2896.t29 a_4920_2896.t10 VSS.t25 sky130_fd_pr__nfet_01v8_lvt ad=0.435 pd=3.29 as=0.435 ps=3.29 w=3 l=1
X89 a_2995_7336.t0 VN.t4 a_2479_9004.t16 VSS.t11 sky130_fd_pr__nfet_01v8_lvt ad=1.015 pd=7.29 as=1.015 ps=7.29 w=7 l=1
X90 VOUT.t20 a_2479_7336.t30 VDD.t62 VDD.t50 sky130_fd_pr__pfet_01v8 ad=0.145 pd=1.29 as=0.145 ps=1.29 w=1 l=0.4
X91 a_4920_2896.t9 a_2080_2896.t30 VSS.t50 VSS.t34 sky130_fd_pr__nfet_01v8_lvt ad=0.435 pd=3.29 as=0.435 ps=3.29 w=3 l=1
X92 a_2479_9004.t15 VN.t5 a_2995_7336.t4 VSS.t10 sky130_fd_pr__nfet_01v8_lvt ad=1.015 pd=7.29 as=1.015 ps=7.29 w=7 l=1
X93 VDD.t56 a_2479_9004.t23 a_2479_7336.t9 VDD.t5 sky130_fd_pr__pfet_01v8 ad=0.145 pd=1.29 as=0.145 ps=1.29 w=1 l=0.4
X94 VDD.t32 VDD.t30 VDD.t32 VDD.t31 sky130_fd_pr__pfet_01v8 ad=0.145 pd=1.29 as=0 ps=0 w=1 l=0.4
X95 VSS.t62 a_2080_2896.t31 a_4920_2896.t8 VSS.t38 sky130_fd_pr__nfet_01v8_lvt ad=0.435 pd=3.29 as=0.435 ps=3.29 w=3 l=1
X96 VOUT.t21 a_2479_7336.t31 VDD.t61 VDD.t50 sky130_fd_pr__pfet_01v8 ad=0.145 pd=1.29 as=0.145 ps=1.29 w=1 l=0.4
X97 VSS.t63 a_2080_2896.t32 a_4920_2896.t7 VSS.t16 sky130_fd_pr__nfet_01v8_lvt ad=0.435 pd=3.29 as=0.435 ps=3.29 w=3 l=1
X98 a_2995_7336.t5 VN.t6 a_2479_9004.t14 VSS.t33 sky130_fd_pr__nfet_01v8_lvt ad=1.015 pd=7.29 as=1.015 ps=7.29 w=7 l=1
X99 VDD.t29 VDD.t27 VDD.t29 VDD.t28 sky130_fd_pr__pfet_01v8 ad=0.145 pd=1.29 as=0 ps=0 w=1 l=0.4
X100 a_4920_2896.t6 a_2080_2896.t33 VSS.t54 VSS.t53 sky130_fd_pr__nfet_01v8_lvt ad=0.435 pd=3.29 as=0.435 ps=3.29 w=3 l=1
X101 a_2479_9004.t13 VN.t7 a_2995_7336.t3 VSS.t23 sky130_fd_pr__nfet_01v8_lvt ad=1.015 pd=7.29 as=1.015 ps=7.29 w=7 l=1
X102 VSS.t61 a_2080_2896.t34 a_4920_2896.t5 VSS.t55 sky130_fd_pr__nfet_01v8_lvt ad=0.435 pd=3.29 as=0.435 ps=3.29 w=3 l=1
X103 VSS.t92 VSS.t90 VSS.t92 VSS.t91 sky130_fd_pr__nfet_01v8_lvt ad=0.435 pd=3.29 as=0 ps=0 w=3 l=1
X104 a_2995_7336.t8 VP.t6 a_2479_7336.t5 VSS.t11 sky130_fd_pr__nfet_01v8_lvt ad=1.015 pd=7.29 as=1.015 ps=7.29 w=7 l=1
X105 a_2479_7336.t4 VP.t7 a_2995_7336.t7 VSS.t10 sky130_fd_pr__nfet_01v8_lvt ad=1.015 pd=7.29 as=1.015 ps=7.29 w=7 l=1
X106 VSS.t89 VSS.t87 VSS.t89 VSS.t88 sky130_fd_pr__nfet_01v8_lvt ad=0.435 pd=3.29 as=0 ps=0 w=3 l=1
X107 VSS.t37 a_2080_2896.t35 a_3758_2896.t3 VSS.t36 sky130_fd_pr__nfet_01v8_lvt ad=0.435 pd=3.29 as=0.435 ps=3.29 w=3 l=1
X108 VSS.t4 a_2080_2896.t36 a_3758_2896.t2 VSS.t3 sky130_fd_pr__nfet_01v8_lvt ad=0.435 pd=3.29 as=0.435 ps=3.29 w=3 l=1
X109 VSS.t86 VSS.t84 VSS.t85 VSS.t77 sky130_fd_pr__nfet_01v8_lvt ad=0.87 pd=6.58 as=0 ps=0 w=3 l=1
X110 a_3758_2896.t1 a_2080_2896.t37 VSS.t26 VSS.t25 sky130_fd_pr__nfet_01v8_lvt ad=0.435 pd=3.29 as=0.435 ps=3.29 w=3 l=1
X111 VDD.t6 a_2479_9004.t2 a_2479_9004.t3 VDD.t5 sky130_fd_pr__pfet_01v8 ad=0.145 pd=1.29 as=0.145 ps=1.29 w=1 l=0.4
X112 VSS.t45 a_2080_2896.t38 a_3758_2896.t0 VSS.t34 sky130_fd_pr__nfet_01v8_lvt ad=0.435 pd=3.29 as=0.435 ps=3.29 w=3 l=1
X113 IBIAS.t1 IBIAS.t0 IBIAS.t1 VSS.t13 sky130_fd_pr__nfet_01v8_lvt ad=1.015 pd=7.29 as=0 ps=0 w=7 l=1
X114 VSS.t83 VSS.t82 VSS.t83 VSS.t43 sky130_fd_pr__nfet_01v8_lvt ad=1.015 pd=7.29 as=0 ps=0 w=7 l=1
X115 VDD.t26 VDD.t25 VDD.t26 VDD.t14 sky130_fd_pr__pfet_01v8 ad=0.145 pd=1.29 as=0 ps=0 w=1 l=0.4
X116 VSS.t28 a_2080_2896.t39 a_4920_2896.t4 VSS.t27 sky130_fd_pr__nfet_01v8_lvt ad=0.435 pd=3.29 as=0.435 ps=3.29 w=3 l=1
X117 VDD.t24 VDD.t22 VDD.t23 VDD.t10 sky130_fd_pr__pfet_01v8 ad=0.29 pd=2.58 as=0 ps=0 w=1 l=0.4
X118 IBIAS.t2 EN.t1 a_2080_2896.t7 VSS.t19 sky130_fd_pr__nfet_01v8_lvt ad=1.015 pd=7.29 as=1.015 ps=7.29 w=7 l=1
X119 VSS.t81 VSS.t80 VSS.t81 VSS.t11 sky130_fd_pr__nfet_01v8_lvt ad=1.015 pd=7.29 as=0 ps=0 w=7 l=1
X120 a_2479_7336.t0 a_2479_9004.t24 VDD.t1 VDD.t0 sky130_fd_pr__pfet_01v8 ad=0.145 pd=1.29 as=0.145 ps=1.29 w=1 l=0.4
X121 a_4920_2896.t3 a_2080_2896.t40 VSS.t48 VSS.t14 sky130_fd_pr__nfet_01v8_lvt ad=0.435 pd=3.29 as=0.435 ps=3.29 w=3 l=1
X122 a_4920_2896.t2 a_2080_2896.t41 VSS.t40 VSS.t20 sky130_fd_pr__nfet_01v8_lvt ad=0.435 pd=3.29 as=0.435 ps=3.29 w=3 l=1
X123 VOUT.t18 a_2479_7336.t32 VDD.t60 VDD.t7 sky130_fd_pr__pfet_01v8 ad=0.145 pd=1.29 as=0.145 ps=1.29 w=1 l=0.4
X124 a_2479_7336.t8 C1.t0 VSS.t49 sky130_fd_pr__res_xhigh_po_1p41 l=14
X125 VDD.t21 VDD.t19 VDD.t21 VDD.t20 sky130_fd_pr__pfet_01v8 ad=0.145 pd=1.29 as=0 ps=0 w=1 l=0.4
X126 VDD.t18 VDD.t16 VDD.t18 VDD.t17 sky130_fd_pr__pfet_01v8 ad=0.145 pd=1.29 as=0 ps=0 w=1 l=0.4
X127 a_3758_2896.t14 a_3758_2896.t13 a_3758_2896.t14 VSS.t24 sky130_fd_pr__nfet_01v8_lvt ad=1.015 pd=7.29 as=0 ps=0 w=7 l=1
X128 VOUT.t24 a_2479_7336.t33 VDD.t59 VDD.t7 sky130_fd_pr__pfet_01v8 ad=0.145 pd=1.29 as=0.145 ps=1.29 w=1 l=0.4
X129 VOUT.t5 VOUT.t4 VOUT.t5 VDD.t34 sky130_fd_pr__pfet_01v8 ad=0.145 pd=1.29 as=0 ps=0 w=1 l=0.4
X130 a_4920_2896.t1 a_2080_2896.t42 VSS.t135 VSS.t1 sky130_fd_pr__nfet_01v8_lvt ad=0.435 pd=3.29 as=0.435 ps=3.29 w=3 l=1
X131 a_3758_2896.t12 EN.t2 a_2995_7336.t1 VSS.t12 sky130_fd_pr__nfet_01v8_lvt ad=1.015 pd=7.29 as=1.015 ps=7.29 w=7 l=1
X132 VSS.t41 a_2080_2896.t43 a_4920_2896.t0 VSS.t5 sky130_fd_pr__nfet_01v8_lvt ad=0.435 pd=3.29 as=0.435 ps=3.29 w=3 l=1
X133 VOUT.t3 VOUT.t2 VOUT.t3 VDD.t20 sky130_fd_pr__pfet_01v8 ad=0.145 pd=1.29 as=0 ps=0 w=1 l=0.4
X134 VOUT.t25 a_2479_7336.t34 VDD.t58 VDD.t34 sky130_fd_pr__pfet_01v8 ad=0.145 pd=1.29 as=0.145 ps=1.29 w=1 l=0.4
X135 VSS.t79 VSS.t76 VSS.t78 VSS.t77 sky130_fd_pr__nfet_01v8_lvt ad=0.87 pd=6.58 as=0 ps=0 w=3 l=1
X136 a_2995_7336.t19 a_2995_7336.t17 a_2995_7336.t18 VSS.t52 sky130_fd_pr__nfet_01v8_lvt ad=2.03 pd=14.58 as=0 ps=0 w=7 l=1
X137 VDD.t15 VDD.t13 VDD.t15 VDD.t14 sky130_fd_pr__pfet_01v8 ad=0.145 pd=1.29 as=0 ps=0 w=1 l=0.4
X138 VSS.t75 VSS.t74 VSS.t75 VSS.t0 sky130_fd_pr__nfet_01v8_lvt ad=1.015 pd=7.29 as=0 ps=0 w=7 l=1
X139 VDD.t12 VDD.t9 VDD.t11 VDD.t10 sky130_fd_pr__pfet_01v8 ad=0.29 pd=2.58 as=0 ps=0 w=1 l=0.4
X140 a_2080_2896.t4 a_2080_2896.t3 VSS.t31 VSS.t27 sky130_fd_pr__nfet_01v8_lvt ad=0.435 pd=3.29 as=0.435 ps=3.29 w=3 l=1
X141 VSS.t73 VSS.t71 VSS.t72 VSS.t7 sky130_fd_pr__nfet_01v8_lvt ad=2.03 pd=14.58 as=0 ps=0 w=7 l=1
X142 VSS.t70 VSS.t69 VSS.t70 VSS.t43 sky130_fd_pr__nfet_01v8_lvt ad=1.015 pd=7.29 as=0 ps=0 w=7 l=1
X143 VDD.t57 a_2479_7336.t35 VOUT.t26 VDD.t2 sky130_fd_pr__pfet_01v8 ad=0.145 pd=1.29 as=0.145 ps=1.29 w=1 l=0.4
X144 VSS.t68 VSS.t67 VSS.t68 VSS.t0 sky130_fd_pr__nfet_01v8_lvt ad=1.015 pd=7.29 as=0 ps=0 w=7 l=1
X145 a_2479_9004.t1 a_2479_9004.t0 VDD.t75 VDD.t0 sky130_fd_pr__pfet_01v8 ad=0.145 pd=1.29 as=0.145 ps=1.29 w=1 l=0.4
X146 VSS.t66 VSS.t65 VSS.t66 VSS.t9 sky130_fd_pr__nfet_01v8_lvt ad=1.015 pd=7.29 as=0 ps=0 w=7 l=1
R0 VSS.n2312 VSS.n144 2542.66
R1 VSS.n2145 VSS.n2134 1321.06
R2 VSS.n2147 VSS.n2132 1321.06
R3 VSS.n2314 VSS.n140 1321.06
R4 VSS.n2307 VSS.n2306 1321.06
R5 VSS.n1540 VSS.n636 1268.91
R6 VSS.n2622 VSS.n37 1268.91
R7 VSS.n1496 VSS.n1495 1268.91
R8 VSS.n2594 VSS.n41 1268.91
R9 VSS.n1627 VSS.n572 1268.91
R10 VSS.n1595 VSS.n604 1268.91
R11 VSS.n987 VSS.n570 1268.91
R12 VSS.n1552 VSS.n1551 1268.91
R13 VSS.n1343 VSS.n1279 1268.91
R14 VSS.n1643 VSS.n509 1268.91
R15 VSS.n1302 VSS.n1276 1268.91
R16 VSS.n1645 VSS.n506 1268.91
R17 VSS.n1829 VSS.n375 1182
R18 VSS.n2003 VSS.n342 1182
R19 VSS.n1832 VSS.n377 1182
R20 VSS.n1921 VSS.n340 1182
R21 VSS.n1093 VSS.n1091 1182
R22 VSS.n2396 VSS.n116 1182
R23 VSS.n2548 VSS.n2545 1182
R24 VSS.n1347 VSS.n719 1182
R25 VSS.n2406 VSS.n101 996.588
R26 VSS.n2312 VSS.n142 614.067
R27 VSS.n2454 VSS.n89 602.588
R28 VSS.n2502 VSS.n77 602.588
R29 VSS.n197 VSS.n196 585
R30 VSS.n199 VSS.n197 585
R31 VSS.n2224 VSS.n2223 585
R32 VSS.n2225 VSS.n2224 585
R33 VSS.n2222 VSS.n204 585
R34 VSS.n204 VSS.n203 585
R35 VSS.n2221 VSS.n2220 585
R36 VSS.n2220 VSS.n2219 585
R37 VSS.n206 VSS.n205 585
R38 VSS.n207 VSS.n206 585
R39 VSS.n2212 VSS.n2211 585
R40 VSS.n2213 VSS.n2212 585
R41 VSS.n2210 VSS.n212 585
R42 VSS.n212 VSS.n211 585
R43 VSS.n2209 VSS.n2208 585
R44 VSS.n2208 VSS.n2207 585
R45 VSS.n214 VSS.n213 585
R46 VSS.n215 VSS.n214 585
R47 VSS.n2200 VSS.n2199 585
R48 VSS.n2201 VSS.n2200 585
R49 VSS.n2198 VSS.n220 585
R50 VSS.n220 VSS.n219 585
R51 VSS.n2197 VSS.n2196 585
R52 VSS.n2196 VSS.n2195 585
R53 VSS.n222 VSS.n221 585
R54 VSS.n223 VSS.n222 585
R55 VSS.n2188 VSS.n2187 585
R56 VSS.n2189 VSS.n2188 585
R57 VSS.n2186 VSS.n228 585
R58 VSS.n228 VSS.n227 585
R59 VSS.n2185 VSS.n2184 585
R60 VSS.n2184 VSS.n2183 585
R61 VSS.n230 VSS.n229 585
R62 VSS.n231 VSS.n230 585
R63 VSS.n2176 VSS.n2175 585
R64 VSS.n2177 VSS.n2176 585
R65 VSS.n2174 VSS.n236 585
R66 VSS.n236 VSS.n235 585
R67 VSS.n2173 VSS.n2172 585
R68 VSS.n2172 VSS.n2171 585
R69 VSS.n238 VSS.n237 585
R70 VSS.n2164 VSS.n238 585
R71 VSS.n2163 VSS.n2162 585
R72 VSS.n2165 VSS.n2163 585
R73 VSS.n2161 VSS.n2122 585
R74 VSS.n2122 VSS.n2121 585
R75 VSS.n2160 VSS.n2159 585
R76 VSS.n2159 VSS.n2158 585
R77 VSS.n2124 VSS.n2123 585
R78 VSS.n2125 VSS.n2124 585
R79 VSS.n2151 VSS.n2150 585
R80 VSS.n2152 VSS.n2151 585
R81 VSS.n2149 VSS.n2130 585
R82 VSS.n2130 VSS.n2129 585
R83 VSS.n2148 VSS.n2147 585
R84 VSS.n2147 VSS.n2146 585
R85 VSS.n2132 VSS.n2131 585
R86 VSS.n2138 VSS.n2136 585
R87 VSS.n2139 VSS.n2135 585
R88 VSS.n2142 VSS.n2141 585
R89 VSS.n2143 VSS.n2134 585
R90 VSS.n2134 VSS.n2133 585
R91 VSS.n2145 VSS.n2144 585
R92 VSS.n2146 VSS.n2145 585
R93 VSS.n2128 VSS.n2127 585
R94 VSS.n2129 VSS.n2128 585
R95 VSS.n2154 VSS.n2153 585
R96 VSS.n2153 VSS.n2152 585
R97 VSS.n2155 VSS.n2126 585
R98 VSS.n2126 VSS.n2125 585
R99 VSS.n2157 VSS.n2156 585
R100 VSS.n2158 VSS.n2157 585
R101 VSS.n2120 VSS.n2119 585
R102 VSS.n2121 VSS.n2120 585
R103 VSS.n2167 VSS.n2166 585
R104 VSS.n2166 VSS.n2165 585
R105 VSS.n2168 VSS.n2118 585
R106 VSS.n2164 VSS.n2118 585
R107 VSS.n2170 VSS.n2169 585
R108 VSS.n2171 VSS.n2170 585
R109 VSS.n234 VSS.n233 585
R110 VSS.n235 VSS.n234 585
R111 VSS.n2179 VSS.n2178 585
R112 VSS.n2178 VSS.n2177 585
R113 VSS.n2180 VSS.n232 585
R114 VSS.n232 VSS.n231 585
R115 VSS.n2182 VSS.n2181 585
R116 VSS.n2183 VSS.n2182 585
R117 VSS.n226 VSS.n225 585
R118 VSS.n227 VSS.n226 585
R119 VSS.n2191 VSS.n2190 585
R120 VSS.n2190 VSS.n2189 585
R121 VSS.n2192 VSS.n224 585
R122 VSS.n224 VSS.n223 585
R123 VSS.n2194 VSS.n2193 585
R124 VSS.n2195 VSS.n2194 585
R125 VSS.n218 VSS.n217 585
R126 VSS.n219 VSS.n218 585
R127 VSS.n2203 VSS.n2202 585
R128 VSS.n2202 VSS.n2201 585
R129 VSS.n2204 VSS.n216 585
R130 VSS.n216 VSS.n215 585
R131 VSS.n2206 VSS.n2205 585
R132 VSS.n2207 VSS.n2206 585
R133 VSS.n210 VSS.n209 585
R134 VSS.n211 VSS.n210 585
R135 VSS.n2215 VSS.n2214 585
R136 VSS.n2214 VSS.n2213 585
R137 VSS.n2216 VSS.n208 585
R138 VSS.n208 VSS.n207 585
R139 VSS.n2218 VSS.n2217 585
R140 VSS.n2219 VSS.n2218 585
R141 VSS.n202 VSS.n201 585
R142 VSS.n203 VSS.n202 585
R143 VSS.n2227 VSS.n2226 585
R144 VSS.n2226 VSS.n2225 585
R145 VSS.n2228 VSS.n200 585
R146 VSS.n200 VSS.n199 585
R147 VSS.n2315 VSS.n2314 585
R148 VSS.n146 VSS.n141 585
R149 VSS.n2311 VSS.n2310 585
R150 VSS.n2312 VSS.n2311 585
R151 VSS.n2309 VSS.n145 585
R152 VSS.n2308 VSS.n2307 585
R153 VSS.n2306 VSS.n147 585
R154 VSS.n2306 VSS.n142 585
R155 VSS.n2305 VSS.n149 585
R156 VSS.n2305 VSS.n2304 585
R157 VSS.n2295 VSS.n148 585
R158 VSS.n150 VSS.n148 585
R159 VSS.n2297 VSS.n2296 585
R160 VSS.n2298 VSS.n2297 585
R161 VSS.n2294 VSS.n155 585
R162 VSS.n155 VSS.n154 585
R163 VSS.n2293 VSS.n2292 585
R164 VSS.n2292 VSS.n2291 585
R165 VSS.n157 VSS.n156 585
R166 VSS.n158 VSS.n157 585
R167 VSS.n2284 VSS.n2283 585
R168 VSS.n2285 VSS.n2284 585
R169 VSS.n2282 VSS.n163 585
R170 VSS.n163 VSS.n162 585
R171 VSS.n2281 VSS.n2280 585
R172 VSS.n2280 VSS.n2279 585
R173 VSS.n165 VSS.n164 585
R174 VSS.n166 VSS.n165 585
R175 VSS.n2272 VSS.n2271 585
R176 VSS.n2273 VSS.n2272 585
R177 VSS.n2270 VSS.n171 585
R178 VSS.n171 VSS.n170 585
R179 VSS.n2269 VSS.n2268 585
R180 VSS.n2268 VSS.n2267 585
R181 VSS.n173 VSS.n172 585
R182 VSS.n174 VSS.n173 585
R183 VSS.n2260 VSS.n2259 585
R184 VSS.n2261 VSS.n2260 585
R185 VSS.n2258 VSS.n179 585
R186 VSS.n179 VSS.n178 585
R187 VSS.n2257 VSS.n2256 585
R188 VSS.n2256 VSS.n2255 585
R189 VSS.n181 VSS.n180 585
R190 VSS.n182 VSS.n181 585
R191 VSS.n2248 VSS.n2247 585
R192 VSS.n2249 VSS.n2248 585
R193 VSS.n2246 VSS.n187 585
R194 VSS.n187 VSS.n186 585
R195 VSS.n2245 VSS.n2244 585
R196 VSS.n2244 VSS.n2243 585
R197 VSS.n189 VSS.n188 585
R198 VSS.n190 VSS.n189 585
R199 VSS.n2236 VSS.n2235 585
R200 VSS.n2237 VSS.n2236 585
R201 VSS.n2234 VSS.n195 585
R202 VSS.n195 VSS.n194 585
R203 VSS.n2233 VSS.n2232 585
R204 VSS.n2232 VSS.n2231 585
R205 VSS.n2230 VSS.n2229 585
R206 VSS.n2231 VSS.n2230 585
R207 VSS.n193 VSS.n192 585
R208 VSS.n194 VSS.n193 585
R209 VSS.n2239 VSS.n2238 585
R210 VSS.n2238 VSS.n2237 585
R211 VSS.n2240 VSS.n191 585
R212 VSS.n191 VSS.n190 585
R213 VSS.n2242 VSS.n2241 585
R214 VSS.n2243 VSS.n2242 585
R215 VSS.n185 VSS.n184 585
R216 VSS.n186 VSS.n185 585
R217 VSS.n2251 VSS.n2250 585
R218 VSS.n2250 VSS.n2249 585
R219 VSS.n2252 VSS.n183 585
R220 VSS.n183 VSS.n182 585
R221 VSS.n2254 VSS.n2253 585
R222 VSS.n2255 VSS.n2254 585
R223 VSS.n177 VSS.n176 585
R224 VSS.n178 VSS.n177 585
R225 VSS.n2263 VSS.n2262 585
R226 VSS.n2262 VSS.n2261 585
R227 VSS.n2264 VSS.n175 585
R228 VSS.n175 VSS.n174 585
R229 VSS.n2266 VSS.n2265 585
R230 VSS.n2267 VSS.n2266 585
R231 VSS.n169 VSS.n168 585
R232 VSS.n170 VSS.n169 585
R233 VSS.n2275 VSS.n2274 585
R234 VSS.n2274 VSS.n2273 585
R235 VSS.n2276 VSS.n167 585
R236 VSS.n167 VSS.n166 585
R237 VSS.n2278 VSS.n2277 585
R238 VSS.n2279 VSS.n2278 585
R239 VSS.n161 VSS.n160 585
R240 VSS.n162 VSS.n161 585
R241 VSS.n2287 VSS.n2286 585
R242 VSS.n2286 VSS.n2285 585
R243 VSS.n2288 VSS.n159 585
R244 VSS.n159 VSS.n158 585
R245 VSS.n2290 VSS.n2289 585
R246 VSS.n2291 VSS.n2290 585
R247 VSS.n153 VSS.n152 585
R248 VSS.n154 VSS.n153 585
R249 VSS.n2300 VSS.n2299 585
R250 VSS.n2299 VSS.n2298 585
R251 VSS.n2301 VSS.n151 585
R252 VSS.n151 VSS.n150 585
R253 VSS.n2303 VSS.n2302 585
R254 VSS.n2304 VSS.n2303 585
R255 VSS.n140 VSS.n138 585
R256 VSS.n142 VSS.n140 585
R257 VSS.n1641 VSS.n509 585
R258 VSS.n1640 VSS.n1639 585
R259 VSS.n512 VSS.n511 585
R260 VSS.n1637 VSS.n512 585
R261 VSS.n525 VSS.n524 585
R262 VSS.n527 VSS.n526 585
R263 VSS.n529 VSS.n528 585
R264 VSS.n531 VSS.n530 585
R265 VSS.n533 VSS.n532 585
R266 VSS.n535 VSS.n534 585
R267 VSS.n537 VSS.n536 585
R268 VSS.n539 VSS.n538 585
R269 VSS.n541 VSS.n540 585
R270 VSS.n543 VSS.n542 585
R271 VSS.n545 VSS.n544 585
R272 VSS.n547 VSS.n546 585
R273 VSS.n549 VSS.n548 585
R274 VSS.n551 VSS.n550 585
R275 VSS.n553 VSS.n552 585
R276 VSS.n555 VSS.n554 585
R277 VSS.n557 VSS.n556 585
R278 VSS.n558 VSS.n523 585
R279 VSS.n561 VSS.n560 585
R280 VSS.n559 VSS.n506 585
R281 VSS.n1646 VSS.n1645 585
R282 VSS.n1645 VSS.n1644 585
R283 VSS.n505 VSS.n504 585
R284 VSS.n1378 VSS.n505 585
R285 VSS.n1375 VSS.n1374 585
R286 VSS.n1376 VSS.n1375 585
R287 VSS.n1372 VSS.n709 585
R288 VSS.n1412 VSS.n709 585
R289 VSS.n902 VSS.n710 585
R290 VSS.n903 VSS.n902 585
R291 VSS.n1368 VSS.n701 585
R292 VSS.n1418 VSS.n701 585
R293 VSS.n1367 VSS.n1366 585
R294 VSS.n1366 VSS.n1365 585
R295 VSS.n712 VSS.n711 585
R296 VSS.n1363 VSS.n712 585
R297 VSS.n1296 VSS.n1295 585
R298 VSS.n1295 VSS.n718 585
R299 VSS.n1297 VSS.n717 585
R300 VSS.n1357 VSS.n717 585
R301 VSS.n1299 VSS.n1298 585
R302 VSS.n1298 VSS.n1278 585
R303 VSS.n1300 VSS.n1276 585
R304 VSS.n1344 VSS.n1276 585
R305 VSS.n1303 VSS.n1302 585
R306 VSS.n1304 VSS.n1294 585
R307 VSS.n1306 VSS.n1305 585
R308 VSS.n1308 VSS.n1292 585
R309 VSS.n1310 VSS.n1309 585
R310 VSS.n1311 VSS.n1291 585
R311 VSS.n1313 VSS.n1312 585
R312 VSS.n1315 VSS.n1289 585
R313 VSS.n1317 VSS.n1316 585
R314 VSS.n1318 VSS.n1288 585
R315 VSS.n1320 VSS.n1319 585
R316 VSS.n1322 VSS.n1286 585
R317 VSS.n1324 VSS.n1323 585
R318 VSS.n1325 VSS.n1285 585
R319 VSS.n1327 VSS.n1326 585
R320 VSS.n1329 VSS.n1283 585
R321 VSS.n1331 VSS.n1330 585
R322 VSS.n1332 VSS.n1282 585
R323 VSS.n1334 VSS.n1333 585
R324 VSS.n1336 VSS.n1281 585
R325 VSS.n1337 VSS.n1280 585
R326 VSS.n1340 VSS.n1339 585
R327 VSS.n1341 VSS.n1279 585
R328 VSS.n1279 VSS.n723 585
R329 VSS.n1343 VSS.n1342 585
R330 VSS.n1344 VSS.n1343 585
R331 VSS.n716 VSS.n715 585
R332 VSS.n1278 VSS.n716 585
R333 VSS.n1359 VSS.n1358 585
R334 VSS.n1358 VSS.n1357 585
R335 VSS.n1360 VSS.n714 585
R336 VSS.n718 VSS.n714 585
R337 VSS.n1362 VSS.n1361 585
R338 VSS.n1363 VSS.n1362 585
R339 VSS.n705 VSS.n703 585
R340 VSS.n1365 VSS.n703 585
R341 VSS.n1417 VSS.n1416 585
R342 VSS.n1418 VSS.n1417 585
R343 VSS.n1415 VSS.n704 585
R344 VSS.n903 VSS.n704 585
R345 VSS.n1414 VSS.n1413 585
R346 VSS.n1413 VSS.n1412 585
R347 VSS.n707 VSS.n706 585
R348 VSS.n1376 VSS.n707 585
R349 VSS.n510 VSS.n508 585
R350 VSS.n1378 VSS.n508 585
R351 VSS.n1643 VSS.n1642 585
R352 VSS.n1644 VSS.n1643 585
R353 VSS.n1596 VSS.n1595 585
R354 VSS.n607 VSS.n606 585
R355 VSS.n1592 VSS.n1591 585
R356 VSS.n1593 VSS.n1592 585
R357 VSS.n1590 VSS.n619 585
R358 VSS.n1589 VSS.n1588 585
R359 VSS.n1587 VSS.n1586 585
R360 VSS.n1585 VSS.n1584 585
R361 VSS.n1583 VSS.n1582 585
R362 VSS.n1581 VSS.n1580 585
R363 VSS.n1579 VSS.n1578 585
R364 VSS.n1577 VSS.n1576 585
R365 VSS.n1575 VSS.n1574 585
R366 VSS.n1573 VSS.n1572 585
R367 VSS.n1571 VSS.n1570 585
R368 VSS.n1569 VSS.n1568 585
R369 VSS.n1567 VSS.n1566 585
R370 VSS.n1565 VSS.n1564 585
R371 VSS.n1563 VSS.n1562 585
R372 VSS.n1561 VSS.n1560 585
R373 VSS.n1559 VSS.n1558 585
R374 VSS.n1557 VSS.n1556 585
R375 VSS.n1555 VSS.n1554 585
R376 VSS.n1553 VSS.n1552 585
R377 VSS.n1551 VSS.n620 585
R378 VSS.n1551 VSS.n1550 585
R379 VSS.n999 VSS.n601 585
R380 VSS.n1600 VSS.n601 585
R381 VSS.n1050 VSS.n1000 585
R382 VSS.n1050 VSS.n1049 585
R383 VSS.n1052 VSS.n1051 585
R384 VSS.n1051 VSS.n595 585
R385 VSS.n997 VSS.n594 585
R386 VSS.n1608 VSS.n594 585
R387 VSS.n995 VSS.n994 585
R388 VSS.n994 VSS.n993 585
R389 VSS.n1057 VSS.n587 585
R390 VSS.n1614 VSS.n587 585
R391 VSS.n1060 VSS.n1059 585
R392 VSS.n1060 VSS.n586 585
R393 VSS.n1062 VSS.n1061 585
R394 VSS.n1061 VSS.n578 585
R395 VSS.n990 VSS.n577 585
R396 VSS.n1622 VSS.n577 585
R397 VSS.n1067 VSS.n1066 585
R398 VSS.n1068 VSS.n1067 585
R399 VSS.n989 VSS.n570 585
R400 VSS.n1628 VSS.n570 585
R401 VSS.n988 VSS.n987 585
R402 VSS.n985 VSS.n934 585
R403 VSS.n984 VSS.n983 585
R404 VSS.n982 VSS.n981 585
R405 VSS.n980 VSS.n936 585
R406 VSS.n978 VSS.n977 585
R407 VSS.n976 VSS.n937 585
R408 VSS.n975 VSS.n974 585
R409 VSS.n972 VSS.n938 585
R410 VSS.n970 VSS.n969 585
R411 VSS.n968 VSS.n939 585
R412 VSS.n967 VSS.n966 585
R413 VSS.n964 VSS.n940 585
R414 VSS.n962 VSS.n961 585
R415 VSS.n960 VSS.n941 585
R416 VSS.n959 VSS.n958 585
R417 VSS.n956 VSS.n942 585
R418 VSS.n954 VSS.n953 585
R419 VSS.n952 VSS.n943 585
R420 VSS.n951 VSS.n950 585
R421 VSS.n948 VSS.n944 585
R422 VSS.n946 VSS.n945 585
R423 VSS.n574 VSS.n572 585
R424 VSS.n572 VSS.n569 585
R425 VSS.n1627 VSS.n1626 585
R426 VSS.n1628 VSS.n1627 585
R427 VSS.n1625 VSS.n573 585
R428 VSS.n1068 VSS.n573 585
R429 VSS.n1624 VSS.n1623 585
R430 VSS.n1623 VSS.n1622 585
R431 VSS.n576 VSS.n575 585
R432 VSS.n578 VSS.n576 585
R433 VSS.n590 VSS.n588 585
R434 VSS.n588 VSS.n586 585
R435 VSS.n1613 VSS.n1612 585
R436 VSS.n1614 VSS.n1613 585
R437 VSS.n1611 VSS.n589 585
R438 VSS.n993 VSS.n589 585
R439 VSS.n1610 VSS.n1609 585
R440 VSS.n1609 VSS.n1608 585
R441 VSS.n592 VSS.n591 585
R442 VSS.n595 VSS.n592 585
R443 VSS.n605 VSS.n603 585
R444 VSS.n1049 VSS.n603 585
R445 VSS.n1599 VSS.n1598 585
R446 VSS.n1600 VSS.n1599 585
R447 VSS.n1597 VSS.n604 585
R448 VSS.n1550 VSS.n604 585
R449 VSS.n2622 VSS.n2621 585
R450 VSS.n2620 VSS.n36 585
R451 VSS.n2619 VSS.n35 585
R452 VSS.n2624 VSS.n35 585
R453 VSS.n2618 VSS.n2617 585
R454 VSS.n2616 VSS.n2615 585
R455 VSS.n2614 VSS.n2613 585
R456 VSS.n2612 VSS.n2611 585
R457 VSS.n2610 VSS.n2609 585
R458 VSS.n2607 VSS.n2606 585
R459 VSS.n2605 VSS.n2604 585
R460 VSS.n27 VSS.n26 585
R461 VSS.n29 VSS.n28 585
R462 VSS.n19 VSS.n18 585
R463 VSS.n2627 VSS.n2626 585
R464 VSS.n2579 VSS.n20 585
R465 VSS.n2581 VSS.n2580 585
R466 VSS.n2583 VSS.n2582 585
R467 VSS.n2585 VSS.n2584 585
R468 VSS.n2587 VSS.n2586 585
R469 VSS.n2589 VSS.n2588 585
R470 VSS.n2591 VSS.n2590 585
R471 VSS.n2593 VSS.n2592 585
R472 VSS.n2595 VSS.n2594 585
R473 VSS.n2596 VSS.n41 585
R474 VSS.n41 VSS.n21 585
R475 VSS.n2598 VSS.n2597 585
R476 VSS.n2599 VSS.n2598 585
R477 VSS.n2578 VSS.n40 585
R478 VSS.n45 VSS.n40 585
R479 VSS.n2577 VSS.n2576 585
R480 VSS.n2576 VSS.n2575 585
R481 VSS.n43 VSS.n42 585